*SPEF "ieee 1481-1999"
*DESIGN "chip_top"
*DATE "15:03:49 Monday November 03, 2025"
*VENDOR "The OpenROAD Project"
*PROGRAM "OpenROAD"
*VERSION "4534556345c94ba27a6ad69fb05594da80f0728b"
*DESIGN_FLOW "NAME_SCOPE LOCAL" "PIN_CAP NONE"
*DIVIDER /
*DELIMITER :
*BUS_DELIMITER []
*T_UNIT 1 NS
*C_UNIT 1 PF
*R_UNIT 1 OHM
*L_UNIT 1 HENRY

*NAME_MAP
*3 bidir_PAD[0]
*4 bidir_PAD[10]
*5 bidir_PAD[11]
*6 bidir_PAD[12]
*7 bidir_PAD[13]
*8 bidir_PAD[14]
*9 bidir_PAD[15]
*10 bidir_PAD[16]
*11 bidir_PAD[17]
*12 bidir_PAD[18]
*13 bidir_PAD[19]
*14 bidir_PAD[1]
*15 bidir_PAD[20]
*16 bidir_PAD[21]
*17 bidir_PAD[22]
*18 bidir_PAD[23]
*19 bidir_PAD[24]
*20 bidir_PAD[25]
*21 bidir_PAD[26]
*22 bidir_PAD[27]
*23 bidir_PAD[28]
*24 bidir_PAD[29]
*25 bidir_PAD[2]
*26 bidir_PAD[30]
*27 bidir_PAD[31]
*28 bidir_PAD[32]
*29 bidir_PAD[33]
*30 bidir_PAD[34]
*31 bidir_PAD[35]
*32 bidir_PAD[36]
*33 bidir_PAD[37]
*34 bidir_PAD[38]
*35 bidir_PAD[39]
*36 bidir_PAD[3]
*37 bidir_PAD[40]
*38 bidir_PAD[41]
*39 bidir_PAD[42]
*40 bidir_PAD[43]
*41 bidir_PAD[44]
*42 bidir_PAD[45]
*43 bidir_PAD[46]
*44 bidir_PAD[47]
*45 bidir_PAD[48]
*46 bidir_PAD[49]
*47 bidir_PAD[4]
*48 bidir_PAD[50]
*49 bidir_PAD[51]
*50 bidir_PAD[52]
*51 bidir_PAD[53]
*52 bidir_PAD[5]
*53 bidir_PAD[6]
*54 bidir_PAD[7]
*55 bidir_PAD[8]
*56 bidir_PAD[9]
*57 clk_PAD
*58 rst_n_PAD
*59 A_all\[0\]
*60 A_all\[1\]
*61 A_all\[2\]
*62 A_all\[3\]
*63 A_all\[4\]
*64 A_all\[5\]
*65 A_all\[6\]
*66 A_all\[7\]
*67 A_all\[8\]
*68 CEN_all
*69 DAC_clk
*70 DAC_d1
*71 DAC_d2
*72 DAC_le
*73 D_all\[0\]
*74 D_all\[1\]
*75 D_all\[2\]
*76 D_all\[3\]
*77 D_all\[4\]
*78 D_all\[5\]
*79 D_all\[6\]
*80 D_all\[7\]
*81 GWEN_0
*82 GWEN_1
*83 GWEN_2
*84 GWEN_3
*85 GWEN_4
*86 GWEN_5
*87 GWEN_6
*88 GWEN_7
*89 Q0\[0\]
*90 Q0\[1\]
*91 Q0\[2\]
*92 Q0\[3\]
*93 Q0\[4\]
*94 Q0\[5\]
*95 Q0\[6\]
*96 Q0\[7\]
*97 Q1\[0\]
*98 Q1\[1\]
*99 Q1\[2\]
*100 Q1\[3\]
*101 Q1\[4\]
*102 Q1\[5\]
*103 Q1\[6\]
*104 Q1\[7\]
*105 Q2\[0\]
*106 Q2\[1\]
*107 Q2\[2\]
*108 Q2\[3\]
*109 Q2\[4\]
*110 Q2\[5\]
*111 Q2\[6\]
*112 Q2\[7\]
*113 Q3\[0\]
*114 Q3\[1\]
*115 Q3\[2\]
*116 Q3\[3\]
*117 Q3\[4\]
*118 Q3\[5\]
*119 Q3\[6\]
*120 Q3\[7\]
*121 Q4\[0\]
*122 Q4\[1\]
*123 Q4\[2\]
*124 Q4\[3\]
*125 Q4\[4\]
*126 Q4\[5\]
*127 Q4\[6\]
*128 Q4\[7\]
*129 Q5\[0\]
*130 Q5\[1\]
*131 Q5\[2\]
*132 Q5\[3\]
*133 Q5\[4\]
*134 Q5\[5\]
*135 Q5\[6\]
*136 Q5\[7\]
*137 Q6\[0\]
*138 Q6\[1\]
*139 Q6\[2\]
*140 Q6\[3\]
*141 Q6\[4\]
*142 Q6\[5\]
*143 Q6\[6\]
*144 Q6\[7\]
*145 Q7\[0\]
*146 Q7\[1\]
*147 Q7\[2\]
*148 Q7\[3\]
*149 Q7\[4\]
*150 Q7\[5\]
*151 Q7\[6\]
*152 Q7\[7\]
*153 RXD
*154 TXD
*155 WEN_all\[0\]
*156 WEN_all\[1\]
*157 WEN_all\[2\]
*158 WEN_all\[3\]
*159 WEN_all\[4\]
*160 WEN_all\[5\]
*161 WEN_all\[6\]
*162 WEN_all\[7\]
*163 WEb_ram
*164 bidir_CORE2PAD\[0\]
*165 bidir_CORE2PAD\[10\]
*166 bidir_CORE2PAD\[11\]
*167 bidir_CORE2PAD\[12\]
*168 bidir_CORE2PAD\[13\]
*169 bidir_CORE2PAD\[14\]
*170 bidir_CORE2PAD\[15\]
*171 bidir_CORE2PAD\[16\]
*172 bidir_CORE2PAD\[17\]
*173 bidir_CORE2PAD\[18\]
*174 bidir_CORE2PAD\[19\]
*175 bidir_CORE2PAD\[1\]
*176 bidir_CORE2PAD\[20\]
*177 bidir_CORE2PAD\[21\]
*178 bidir_CORE2PAD\[22\]
*179 bidir_CORE2PAD\[23\]
*180 bidir_CORE2PAD\[24\]
*181 bidir_CORE2PAD\[25\]
*182 bidir_CORE2PAD\[26\]
*183 bidir_CORE2PAD\[27\]
*184 bidir_CORE2PAD\[28\]
*185 bidir_CORE2PAD\[29\]
*186 bidir_CORE2PAD\[2\]
*187 bidir_CORE2PAD\[30\]
*188 bidir_CORE2PAD\[31\]
*189 bidir_CORE2PAD\[32\]
*190 bidir_CORE2PAD\[33\]
*191 bidir_CORE2PAD\[34\]
*192 bidir_CORE2PAD\[35\]
*193 bidir_CORE2PAD\[36\]
*194 bidir_CORE2PAD\[37\]
*195 bidir_CORE2PAD\[38\]
*196 bidir_CORE2PAD\[39\]
*197 bidir_CORE2PAD\[3\]
*198 bidir_CORE2PAD\[40\]
*199 bidir_CORE2PAD\[41\]
*200 bidir_CORE2PAD\[42\]
*201 bidir_CORE2PAD\[43\]
*202 bidir_CORE2PAD\[44\]
*203 bidir_CORE2PAD\[45\]
*204 bidir_CORE2PAD\[46\]
*205 bidir_CORE2PAD\[47\]
*206 bidir_CORE2PAD\[48\]
*207 bidir_CORE2PAD\[49\]
*208 bidir_CORE2PAD\[4\]
*209 bidir_CORE2PAD\[50\]
*210 bidir_CORE2PAD\[51\]
*211 bidir_CORE2PAD\[52\]
*212 bidir_CORE2PAD\[53\]
*213 bidir_CORE2PAD\[5\]
*214 bidir_CORE2PAD\[6\]
*215 bidir_CORE2PAD\[7\]
*216 bidir_CORE2PAD\[8\]
*217 bidir_CORE2PAD\[9\]
*218 bidir_CORE2PAD_CS\[0\]
*219 bidir_CORE2PAD_CS\[10\]
*220 bidir_CORE2PAD_CS\[11\]
*221 bidir_CORE2PAD_CS\[12\]
*222 bidir_CORE2PAD_CS\[13\]
*223 bidir_CORE2PAD_CS\[14\]
*224 bidir_CORE2PAD_CS\[15\]
*225 bidir_CORE2PAD_CS\[16\]
*226 bidir_CORE2PAD_CS\[17\]
*227 bidir_CORE2PAD_CS\[18\]
*228 bidir_CORE2PAD_CS\[19\]
*229 bidir_CORE2PAD_CS\[1\]
*230 bidir_CORE2PAD_CS\[20\]
*231 bidir_CORE2PAD_CS\[21\]
*232 bidir_CORE2PAD_CS\[22\]
*233 bidir_CORE2PAD_CS\[23\]
*234 bidir_CORE2PAD_CS\[24\]
*235 bidir_CORE2PAD_CS\[25\]
*236 bidir_CORE2PAD_CS\[26\]
*237 bidir_CORE2PAD_CS\[27\]
*238 bidir_CORE2PAD_CS\[28\]
*239 bidir_CORE2PAD_CS\[29\]
*240 bidir_CORE2PAD_CS\[2\]
*241 bidir_CORE2PAD_CS\[30\]
*242 bidir_CORE2PAD_CS\[31\]
*243 bidir_CORE2PAD_CS\[32\]
*244 bidir_CORE2PAD_CS\[33\]
*245 bidir_CORE2PAD_CS\[34\]
*246 bidir_CORE2PAD_CS\[35\]
*247 bidir_CORE2PAD_CS\[36\]
*248 bidir_CORE2PAD_CS\[37\]
*249 bidir_CORE2PAD_CS\[38\]
*250 bidir_CORE2PAD_CS\[39\]
*251 bidir_CORE2PAD_CS\[3\]
*252 bidir_CORE2PAD_CS\[40\]
*253 bidir_CORE2PAD_CS\[41\]
*254 bidir_CORE2PAD_CS\[42\]
*255 bidir_CORE2PAD_CS\[43\]
*256 bidir_CORE2PAD_CS\[44\]
*257 bidir_CORE2PAD_CS\[45\]
*258 bidir_CORE2PAD_CS\[46\]
*259 bidir_CORE2PAD_CS\[47\]
*260 bidir_CORE2PAD_CS\[48\]
*261 bidir_CORE2PAD_CS\[49\]
*262 bidir_CORE2PAD_CS\[4\]
*263 bidir_CORE2PAD_CS\[50\]
*264 bidir_CORE2PAD_CS\[51\]
*265 bidir_CORE2PAD_CS\[52\]
*266 bidir_CORE2PAD_CS\[53\]
*267 bidir_CORE2PAD_CS\[5\]
*268 bidir_CORE2PAD_CS\[6\]
*269 bidir_CORE2PAD_CS\[7\]
*270 bidir_CORE2PAD_CS\[8\]
*271 bidir_CORE2PAD_CS\[9\]
*272 bidir_CORE2PAD_IE\[0\]
*273 bidir_CORE2PAD_IE\[10\]
*274 bidir_CORE2PAD_IE\[11\]
*275 bidir_CORE2PAD_IE\[12\]
*276 bidir_CORE2PAD_IE\[13\]
*277 bidir_CORE2PAD_IE\[14\]
*278 bidir_CORE2PAD_IE\[15\]
*279 bidir_CORE2PAD_IE\[16\]
*280 bidir_CORE2PAD_IE\[17\]
*281 bidir_CORE2PAD_IE\[18\]
*282 bidir_CORE2PAD_IE\[19\]
*283 bidir_CORE2PAD_IE\[1\]
*284 bidir_CORE2PAD_IE\[20\]
*285 bidir_CORE2PAD_IE\[21\]
*286 bidir_CORE2PAD_IE\[22\]
*287 bidir_CORE2PAD_IE\[23\]
*288 bidir_CORE2PAD_IE\[24\]
*289 bidir_CORE2PAD_IE\[25\]
*290 bidir_CORE2PAD_IE\[26\]
*291 bidir_CORE2PAD_IE\[27\]
*292 bidir_CORE2PAD_IE\[28\]
*293 bidir_CORE2PAD_IE\[29\]
*294 bidir_CORE2PAD_IE\[2\]
*295 bidir_CORE2PAD_IE\[30\]
*296 bidir_CORE2PAD_IE\[31\]
*297 bidir_CORE2PAD_IE\[32\]
*298 bidir_CORE2PAD_IE\[33\]
*299 bidir_CORE2PAD_IE\[34\]
*300 bidir_CORE2PAD_IE\[35\]
*301 bidir_CORE2PAD_IE\[36\]
*302 bidir_CORE2PAD_IE\[37\]
*303 bidir_CORE2PAD_IE\[38\]
*304 bidir_CORE2PAD_IE\[39\]
*305 bidir_CORE2PAD_IE\[3\]
*306 bidir_CORE2PAD_IE\[40\]
*307 bidir_CORE2PAD_IE\[41\]
*308 bidir_CORE2PAD_IE\[42\]
*309 bidir_CORE2PAD_IE\[43\]
*310 bidir_CORE2PAD_IE\[44\]
*311 bidir_CORE2PAD_IE\[45\]
*312 bidir_CORE2PAD_IE\[46\]
*313 bidir_CORE2PAD_IE\[47\]
*314 bidir_CORE2PAD_IE\[48\]
*315 bidir_CORE2PAD_IE\[49\]
*316 bidir_CORE2PAD_IE\[4\]
*317 bidir_CORE2PAD_IE\[50\]
*318 bidir_CORE2PAD_IE\[51\]
*319 bidir_CORE2PAD_IE\[52\]
*320 bidir_CORE2PAD_IE\[53\]
*321 bidir_CORE2PAD_IE\[5\]
*322 bidir_CORE2PAD_IE\[6\]
*323 bidir_CORE2PAD_IE\[7\]
*324 bidir_CORE2PAD_IE\[8\]
*325 bidir_CORE2PAD_IE\[9\]
*326 bidir_CORE2PAD_OE\[0\]
*327 bidir_CORE2PAD_OE\[10\]
*328 bidir_CORE2PAD_OE\[11\]
*329 bidir_CORE2PAD_OE\[12\]
*330 bidir_CORE2PAD_OE\[13\]
*331 bidir_CORE2PAD_OE\[14\]
*332 bidir_CORE2PAD_OE\[15\]
*333 bidir_CORE2PAD_OE\[16\]
*334 bidir_CORE2PAD_OE\[17\]
*335 bidir_CORE2PAD_OE\[18\]
*336 bidir_CORE2PAD_OE\[19\]
*337 bidir_CORE2PAD_OE\[1\]
*338 bidir_CORE2PAD_OE\[20\]
*339 bidir_CORE2PAD_OE\[21\]
*340 bidir_CORE2PAD_OE\[22\]
*341 bidir_CORE2PAD_OE\[23\]
*342 bidir_CORE2PAD_OE\[24\]
*343 bidir_CORE2PAD_OE\[25\]
*344 bidir_CORE2PAD_OE\[26\]
*345 bidir_CORE2PAD_OE\[27\]
*346 bidir_CORE2PAD_OE\[28\]
*347 bidir_CORE2PAD_OE\[29\]
*348 bidir_CORE2PAD_OE\[2\]
*349 bidir_CORE2PAD_OE\[30\]
*350 bidir_CORE2PAD_OE\[31\]
*351 bidir_CORE2PAD_OE\[32\]
*352 bidir_CORE2PAD_OE\[33\]
*353 bidir_CORE2PAD_OE\[34\]
*354 bidir_CORE2PAD_OE\[35\]
*355 bidir_CORE2PAD_OE\[36\]
*356 bidir_CORE2PAD_OE\[37\]
*357 bidir_CORE2PAD_OE\[38\]
*358 bidir_CORE2PAD_OE\[39\]
*359 bidir_CORE2PAD_OE\[3\]
*360 bidir_CORE2PAD_OE\[40\]
*361 bidir_CORE2PAD_OE\[41\]
*362 bidir_CORE2PAD_OE\[42\]
*363 bidir_CORE2PAD_OE\[43\]
*364 bidir_CORE2PAD_OE\[44\]
*365 bidir_CORE2PAD_OE\[45\]
*366 bidir_CORE2PAD_OE\[46\]
*367 bidir_CORE2PAD_OE\[47\]
*368 bidir_CORE2PAD_OE\[48\]
*369 bidir_CORE2PAD_OE\[49\]
*370 bidir_CORE2PAD_OE\[4\]
*371 bidir_CORE2PAD_OE\[50\]
*372 bidir_CORE2PAD_OE\[51\]
*373 bidir_CORE2PAD_OE\[52\]
*374 bidir_CORE2PAD_OE\[53\]
*375 bidir_CORE2PAD_OE\[5\]
*376 bidir_CORE2PAD_OE\[6\]
*377 bidir_CORE2PAD_OE\[7\]
*378 bidir_CORE2PAD_OE\[8\]
*379 bidir_CORE2PAD_OE\[9\]
*380 bidir_CORE2PAD_PD\[0\]
*381 bidir_CORE2PAD_PD\[10\]
*382 bidir_CORE2PAD_PD\[11\]
*383 bidir_CORE2PAD_PD\[12\]
*384 bidir_CORE2PAD_PD\[13\]
*385 bidir_CORE2PAD_PD\[14\]
*386 bidir_CORE2PAD_PD\[15\]
*387 bidir_CORE2PAD_PD\[16\]
*388 bidir_CORE2PAD_PD\[17\]
*389 bidir_CORE2PAD_PD\[18\]
*390 bidir_CORE2PAD_PD\[19\]
*391 bidir_CORE2PAD_PD\[1\]
*392 bidir_CORE2PAD_PD\[20\]
*393 bidir_CORE2PAD_PD\[21\]
*394 bidir_CORE2PAD_PD\[22\]
*395 bidir_CORE2PAD_PD\[23\]
*396 bidir_CORE2PAD_PD\[24\]
*397 bidir_CORE2PAD_PD\[25\]
*398 bidir_CORE2PAD_PD\[26\]
*399 bidir_CORE2PAD_PD\[27\]
*400 bidir_CORE2PAD_PD\[28\]
*401 bidir_CORE2PAD_PD\[29\]
*402 bidir_CORE2PAD_PD\[2\]
*403 bidir_CORE2PAD_PD\[30\]
*404 bidir_CORE2PAD_PD\[31\]
*405 bidir_CORE2PAD_PD\[32\]
*406 bidir_CORE2PAD_PD\[33\]
*407 bidir_CORE2PAD_PD\[34\]
*408 bidir_CORE2PAD_PD\[35\]
*409 bidir_CORE2PAD_PD\[36\]
*410 bidir_CORE2PAD_PD\[37\]
*411 bidir_CORE2PAD_PD\[38\]
*412 bidir_CORE2PAD_PD\[39\]
*413 bidir_CORE2PAD_PD\[3\]
*414 bidir_CORE2PAD_PD\[40\]
*415 bidir_CORE2PAD_PD\[41\]
*416 bidir_CORE2PAD_PD\[42\]
*417 bidir_CORE2PAD_PD\[43\]
*418 bidir_CORE2PAD_PD\[44\]
*419 bidir_CORE2PAD_PD\[45\]
*420 bidir_CORE2PAD_PD\[46\]
*421 bidir_CORE2PAD_PD\[47\]
*422 bidir_CORE2PAD_PD\[48\]
*423 bidir_CORE2PAD_PD\[49\]
*424 bidir_CORE2PAD_PD\[4\]
*425 bidir_CORE2PAD_PD\[50\]
*426 bidir_CORE2PAD_PD\[51\]
*427 bidir_CORE2PAD_PD\[52\]
*428 bidir_CORE2PAD_PD\[53\]
*429 bidir_CORE2PAD_PD\[5\]
*430 bidir_CORE2PAD_PD\[6\]
*431 bidir_CORE2PAD_PD\[7\]
*432 bidir_CORE2PAD_PD\[8\]
*433 bidir_CORE2PAD_PD\[9\]
*434 bidir_CORE2PAD_PU\[0\]
*435 bidir_CORE2PAD_PU\[10\]
*436 bidir_CORE2PAD_PU\[11\]
*437 bidir_CORE2PAD_PU\[12\]
*438 bidir_CORE2PAD_PU\[13\]
*439 bidir_CORE2PAD_PU\[14\]
*440 bidir_CORE2PAD_PU\[15\]
*441 bidir_CORE2PAD_PU\[16\]
*442 bidir_CORE2PAD_PU\[17\]
*443 bidir_CORE2PAD_PU\[18\]
*444 bidir_CORE2PAD_PU\[19\]
*445 bidir_CORE2PAD_PU\[1\]
*446 bidir_CORE2PAD_PU\[20\]
*447 bidir_CORE2PAD_PU\[21\]
*448 bidir_CORE2PAD_PU\[22\]
*449 bidir_CORE2PAD_PU\[23\]
*450 bidir_CORE2PAD_PU\[24\]
*451 bidir_CORE2PAD_PU\[25\]
*452 bidir_CORE2PAD_PU\[26\]
*453 bidir_CORE2PAD_PU\[27\]
*454 bidir_CORE2PAD_PU\[28\]
*455 bidir_CORE2PAD_PU\[29\]
*456 bidir_CORE2PAD_PU\[2\]
*457 bidir_CORE2PAD_PU\[30\]
*458 bidir_CORE2PAD_PU\[31\]
*459 bidir_CORE2PAD_PU\[32\]
*460 bidir_CORE2PAD_PU\[33\]
*461 bidir_CORE2PAD_PU\[34\]
*462 bidir_CORE2PAD_PU\[35\]
*463 bidir_CORE2PAD_PU\[36\]
*464 bidir_CORE2PAD_PU\[37\]
*465 bidir_CORE2PAD_PU\[38\]
*466 bidir_CORE2PAD_PU\[39\]
*467 bidir_CORE2PAD_PU\[3\]
*468 bidir_CORE2PAD_PU\[40\]
*469 bidir_CORE2PAD_PU\[41\]
*470 bidir_CORE2PAD_PU\[42\]
*471 bidir_CORE2PAD_PU\[43\]
*472 bidir_CORE2PAD_PU\[44\]
*473 bidir_CORE2PAD_PU\[45\]
*474 bidir_CORE2PAD_PU\[46\]
*475 bidir_CORE2PAD_PU\[47\]
*476 bidir_CORE2PAD_PU\[48\]
*477 bidir_CORE2PAD_PU\[49\]
*478 bidir_CORE2PAD_PU\[4\]
*479 bidir_CORE2PAD_PU\[50\]
*480 bidir_CORE2PAD_PU\[51\]
*481 bidir_CORE2PAD_PU\[52\]
*482 bidir_CORE2PAD_PU\[53\]
*483 bidir_CORE2PAD_PU\[5\]
*484 bidir_CORE2PAD_PU\[6\]
*485 bidir_CORE2PAD_PU\[7\]
*486 bidir_CORE2PAD_PU\[8\]
*487 bidir_CORE2PAD_PU\[9\]
*488 bidir_CORE2PAD_SL\[0\]
*489 bidir_CORE2PAD_SL\[10\]
*490 bidir_CORE2PAD_SL\[11\]
*491 bidir_CORE2PAD_SL\[12\]
*492 bidir_CORE2PAD_SL\[13\]
*493 bidir_CORE2PAD_SL\[14\]
*494 bidir_CORE2PAD_SL\[15\]
*495 bidir_CORE2PAD_SL\[16\]
*496 bidir_CORE2PAD_SL\[17\]
*497 bidir_CORE2PAD_SL\[18\]
*498 bidir_CORE2PAD_SL\[19\]
*499 bidir_CORE2PAD_SL\[1\]
*500 bidir_CORE2PAD_SL\[20\]
*501 bidir_CORE2PAD_SL\[21\]
*502 bidir_CORE2PAD_SL\[22\]
*503 bidir_CORE2PAD_SL\[23\]
*504 bidir_CORE2PAD_SL\[24\]
*505 bidir_CORE2PAD_SL\[25\]
*506 bidir_CORE2PAD_SL\[26\]
*507 bidir_CORE2PAD_SL\[27\]
*508 bidir_CORE2PAD_SL\[28\]
*509 bidir_CORE2PAD_SL\[29\]
*510 bidir_CORE2PAD_SL\[2\]
*511 bidir_CORE2PAD_SL\[30\]
*512 bidir_CORE2PAD_SL\[31\]
*513 bidir_CORE2PAD_SL\[32\]
*514 bidir_CORE2PAD_SL\[33\]
*515 bidir_CORE2PAD_SL\[34\]
*516 bidir_CORE2PAD_SL\[35\]
*517 bidir_CORE2PAD_SL\[36\]
*518 bidir_CORE2PAD_SL\[37\]
*519 bidir_CORE2PAD_SL\[38\]
*520 bidir_CORE2PAD_SL\[39\]
*521 bidir_CORE2PAD_SL\[3\]
*522 bidir_CORE2PAD_SL\[40\]
*523 bidir_CORE2PAD_SL\[41\]
*524 bidir_CORE2PAD_SL\[42\]
*525 bidir_CORE2PAD_SL\[43\]
*526 bidir_CORE2PAD_SL\[44\]
*527 bidir_CORE2PAD_SL\[45\]
*528 bidir_CORE2PAD_SL\[46\]
*529 bidir_CORE2PAD_SL\[47\]
*530 bidir_CORE2PAD_SL\[48\]
*531 bidir_CORE2PAD_SL\[49\]
*532 bidir_CORE2PAD_SL\[4\]
*533 bidir_CORE2PAD_SL\[50\]
*534 bidir_CORE2PAD_SL\[51\]
*535 bidir_CORE2PAD_SL\[52\]
*536 bidir_CORE2PAD_SL\[53\]
*537 bidir_CORE2PAD_SL\[5\]
*538 bidir_CORE2PAD_SL\[6\]
*539 bidir_CORE2PAD_SL\[7\]
*540 bidir_CORE2PAD_SL\[8\]
*541 bidir_CORE2PAD_SL\[9\]
*542 bidir_PAD2CORE\[0\]
*543 bidir_PAD2CORE\[10\]
*544 bidir_PAD2CORE\[11\]
*545 bidir_PAD2CORE\[12\]
*546 bidir_PAD2CORE\[13\]
*547 bidir_PAD2CORE\[14\]
*548 bidir_PAD2CORE\[15\]
*549 bidir_PAD2CORE\[16\]
*550 bidir_PAD2CORE\[17\]
*551 bidir_PAD2CORE\[18\]
*552 bidir_PAD2CORE\[19\]
*553 bidir_PAD2CORE\[1\]
*554 bidir_PAD2CORE\[20\]
*555 bidir_PAD2CORE\[21\]
*556 bidir_PAD2CORE\[22\]
*557 bidir_PAD2CORE\[23\]
*558 bidir_PAD2CORE\[24\]
*559 bidir_PAD2CORE\[25\]
*560 bidir_PAD2CORE\[26\]
*561 bidir_PAD2CORE\[27\]
*562 bidir_PAD2CORE\[28\]
*563 bidir_PAD2CORE\[29\]
*564 bidir_PAD2CORE\[2\]
*565 bidir_PAD2CORE\[30\]
*566 bidir_PAD2CORE\[31\]
*567 bidir_PAD2CORE\[32\]
*568 bidir_PAD2CORE\[33\]
*569 bidir_PAD2CORE\[34\]
*570 bidir_PAD2CORE\[35\]
*571 bidir_PAD2CORE\[36\]
*572 bidir_PAD2CORE\[37\]
*573 bidir_PAD2CORE\[38\]
*574 bidir_PAD2CORE\[39\]
*575 bidir_PAD2CORE\[3\]
*576 bidir_PAD2CORE\[40\]
*577 bidir_PAD2CORE\[41\]
*578 bidir_PAD2CORE\[42\]
*579 bidir_PAD2CORE\[43\]
*580 bidir_PAD2CORE\[44\]
*581 bidir_PAD2CORE\[45\]
*582 bidir_PAD2CORE\[46\]
*583 bidir_PAD2CORE\[47\]
*584 bidir_PAD2CORE\[48\]
*585 bidir_PAD2CORE\[49\]
*586 bidir_PAD2CORE\[4\]
*587 bidir_PAD2CORE\[50\]
*588 bidir_PAD2CORE\[51\]
*589 bidir_PAD2CORE\[52\]
*590 bidir_PAD2CORE\[53\]
*591 bidir_PAD2CORE\[5\]
*592 bidir_PAD2CORE\[6\]
*593 bidir_PAD2CORE\[7\]
*594 bidir_PAD2CORE\[8\]
*595 bidir_PAD2CORE\[9\]
*596 boot_rom_en
*597 bus_addr\[0\]
*598 bus_addr\[1\]
*599 bus_addr\[2\]
*600 bus_addr\[3\]
*601 bus_addr\[4\]
*602 bus_addr\[5\]
*603 bus_cyc
*604 bus_data_gpios\[0\]
*605 bus_data_gpios\[1\]
*606 bus_data_gpios\[2\]
*607 bus_data_gpios\[3\]
*608 bus_data_gpios\[4\]
*609 bus_data_gpios\[5\]
*610 bus_data_gpios\[6\]
*611 bus_data_gpios\[7\]
*612 bus_data_out\[0\]
*613 bus_data_out\[1\]
*614 bus_data_out\[2\]
*615 bus_data_out\[3\]
*616 bus_data_out\[4\]
*617 bus_data_out\[5\]
*618 bus_data_out\[6\]
*619 bus_data_out\[7\]
*620 bus_data_serial_ports\[0\]
*621 bus_data_serial_ports\[1\]
*622 bus_data_serial_ports\[2\]
*623 bus_data_serial_ports\[3\]
*624 bus_data_serial_ports\[4\]
*625 bus_data_serial_ports\[5\]
*626 bus_data_serial_ports\[6\]
*627 bus_data_serial_ports\[7\]
*628 bus_data_sid\[0\]
*629 bus_data_sid\[1\]
*630 bus_data_sid\[2\]
*631 bus_data_sid\[3\]
*632 bus_data_sid\[4\]
*633 bus_data_sid\[5\]
*634 bus_data_sid\[6\]
*635 bus_data_sid\[7\]
*636 bus_data_timers\[0\]
*637 bus_data_timers\[1\]
*638 bus_data_timers\[2\]
*639 bus_data_timers\[3\]
*640 bus_data_timers\[4\]
*641 bus_data_timers\[5\]
*642 bus_data_timers\[6\]
*643 bus_data_timers\[7\]
*644 bus_we_gpios
*645 bus_we_serial_ports
*646 bus_we_sid
*647 bus_we_timers
*648 clk_PAD2CORE
*649 const_zero\[0\]
*650 const_zero\[1\]
*651 const_zero\[2\]
*652 const_zero\[3\]
*653 irq0
*654 irq1
*655 irq2
*656 irq3
*657 irq5
*658 irq6
*659 irq7
*660 last_addr\[0\]
*661 last_addr\[10\]
*662 last_addr\[11\]
*663 last_addr\[12\]
*664 last_addr\[13\]
*665 last_addr\[14\]
*666 last_addr\[15\]
*667 last_addr\[1\]
*668 last_addr\[2\]
*669 last_addr\[3\]
*670 last_addr\[4\]
*671 last_addr\[5\]
*672 last_addr\[6\]
*673 last_addr\[7\]
*674 last_addr\[8\]
*675 last_addr\[9\]
*676 le_hi_act
*677 le_lo_act
*678 pwm0
*679 pwm1
*680 pwm2
*681 ram_bus_in\[0\]
*682 ram_bus_in\[1\]
*683 ram_bus_in\[2\]
*684 ram_bus_in\[3\]
*685 ram_bus_in\[4\]
*686 ram_bus_in\[5\]
*687 ram_bus_in\[6\]
*688 ram_bus_in\[7\]
*689 ram_enabled
*690 requested_addr\[0\]
*691 requested_addr\[10\]
*692 requested_addr\[11\]
*693 requested_addr\[12\]
*694 requested_addr\[13\]
*695 requested_addr\[14\]
*696 requested_addr\[15\]
*697 requested_addr\[1\]
*698 requested_addr\[2\]
*699 requested_addr\[3\]
*700 requested_addr\[4\]
*701 requested_addr\[5\]
*702 requested_addr\[6\]
*703 requested_addr\[7\]
*704 requested_addr\[8\]
*705 requested_addr\[9\]
*706 reset
*707 rom_bus_in\[0\]
*708 rom_bus_in\[1\]
*709 rom_bus_in\[2\]
*710 rom_bus_in\[3\]
*711 rom_bus_in\[4\]
*712 rom_bus_in\[5\]
*713 rom_bus_in\[6\]
*714 rom_bus_in\[7\]
*715 rom_bus_out\[0\]
*716 rom_bus_out\[1\]
*717 rom_bus_out\[2\]
*718 rom_bus_out\[3\]
*719 rom_bus_out\[4\]
*720 rom_bus_out\[5\]
*721 rom_bus_out\[6\]
*722 rom_bus_out\[7\]
*723 rst_n_PAD2CORE
*724 tmr0_clk
*725 tmr0_o
*726 tmr1_clk
*727 tmr1_o
*728 IO_CORNER_NORTH_EAST_INST
*729 IO_CORNER_NORTH_WEST_INST
*730 IO_CORNER_SOUTH_EAST_INST
*731 IO_CORNER_SOUTH_WEST_INST
*732 IO_FILL_IO_EAST_0_0
*733 IO_FILL_IO_EAST_0_100
*734 IO_FILL_IO_EAST_0_1000
*735 IO_FILL_IO_EAST_0_1100
*736 IO_FILL_IO_EAST_0_1200
*737 IO_FILL_IO_EAST_0_1300
*738 IO_FILL_IO_EAST_0_1350
*739 IO_FILL_IO_EAST_0_1360
*740 IO_FILL_IO_EAST_0_1370
*741 IO_FILL_IO_EAST_0_200
*742 IO_FILL_IO_EAST_0_300
*743 IO_FILL_IO_EAST_0_400
*744 IO_FILL_IO_EAST_0_500
*745 IO_FILL_IO_EAST_0_600
*746 IO_FILL_IO_EAST_0_700
*747 IO_FILL_IO_EAST_0_800
*748 IO_FILL_IO_EAST_0_900
*749 IO_FILL_IO_EAST_10_0
*750 IO_FILL_IO_EAST_10_100
*751 IO_FILL_IO_EAST_10_1000
*752 IO_FILL_IO_EAST_10_1100
*753 IO_FILL_IO_EAST_10_1200
*754 IO_FILL_IO_EAST_10_1300
*755 IO_FILL_IO_EAST_10_1350
*756 IO_FILL_IO_EAST_10_200
*757 IO_FILL_IO_EAST_10_300
*758 IO_FILL_IO_EAST_10_400
*759 IO_FILL_IO_EAST_10_500
*760 IO_FILL_IO_EAST_10_600
*761 IO_FILL_IO_EAST_10_700
*762 IO_FILL_IO_EAST_10_800
*763 IO_FILL_IO_EAST_10_900
*764 IO_FILL_IO_EAST_11_0
*765 IO_FILL_IO_EAST_11_100
*766 IO_FILL_IO_EAST_11_1000
*767 IO_FILL_IO_EAST_11_1100
*768 IO_FILL_IO_EAST_11_1200
*769 IO_FILL_IO_EAST_11_1300
*770 IO_FILL_IO_EAST_11_1350
*771 IO_FILL_IO_EAST_11_200
*772 IO_FILL_IO_EAST_11_300
*773 IO_FILL_IO_EAST_11_400
*774 IO_FILL_IO_EAST_11_500
*775 IO_FILL_IO_EAST_11_600
*776 IO_FILL_IO_EAST_11_700
*777 IO_FILL_IO_EAST_11_800
*778 IO_FILL_IO_EAST_11_900
*779 IO_FILL_IO_EAST_12_0
*780 IO_FILL_IO_EAST_12_100
*781 IO_FILL_IO_EAST_12_1000
*782 IO_FILL_IO_EAST_12_1100
*783 IO_FILL_IO_EAST_12_1200
*784 IO_FILL_IO_EAST_12_1300
*785 IO_FILL_IO_EAST_12_1350
*786 IO_FILL_IO_EAST_12_200
*787 IO_FILL_IO_EAST_12_300
*788 IO_FILL_IO_EAST_12_400
*789 IO_FILL_IO_EAST_12_500
*790 IO_FILL_IO_EAST_12_600
*791 IO_FILL_IO_EAST_12_700
*792 IO_FILL_IO_EAST_12_800
*793 IO_FILL_IO_EAST_12_900
*794 IO_FILL_IO_EAST_13_0
*795 IO_FILL_IO_EAST_13_100
*796 IO_FILL_IO_EAST_13_1000
*797 IO_FILL_IO_EAST_13_1100
*798 IO_FILL_IO_EAST_13_1200
*799 IO_FILL_IO_EAST_13_1300
*800 IO_FILL_IO_EAST_13_1350
*801 IO_FILL_IO_EAST_13_200
*802 IO_FILL_IO_EAST_13_300
*803 IO_FILL_IO_EAST_13_400
*804 IO_FILL_IO_EAST_13_500
*805 IO_FILL_IO_EAST_13_600
*806 IO_FILL_IO_EAST_13_700
*807 IO_FILL_IO_EAST_13_800
*808 IO_FILL_IO_EAST_13_900
*809 IO_FILL_IO_EAST_14_0
*810 IO_FILL_IO_EAST_14_100
*811 IO_FILL_IO_EAST_14_1000
*812 IO_FILL_IO_EAST_14_1100
*813 IO_FILL_IO_EAST_14_1200
*814 IO_FILL_IO_EAST_14_1300
*815 IO_FILL_IO_EAST_14_1350
*816 IO_FILL_IO_EAST_14_200
*817 IO_FILL_IO_EAST_14_300
*818 IO_FILL_IO_EAST_14_400
*819 IO_FILL_IO_EAST_14_500
*820 IO_FILL_IO_EAST_14_600
*821 IO_FILL_IO_EAST_14_700
*822 IO_FILL_IO_EAST_14_800
*823 IO_FILL_IO_EAST_14_900
*824 IO_FILL_IO_EAST_15_0
*825 IO_FILL_IO_EAST_15_100
*826 IO_FILL_IO_EAST_15_1000
*827 IO_FILL_IO_EAST_15_1100
*828 IO_FILL_IO_EAST_15_1200
*829 IO_FILL_IO_EAST_15_1300
*830 IO_FILL_IO_EAST_15_1350
*831 IO_FILL_IO_EAST_15_200
*832 IO_FILL_IO_EAST_15_300
*833 IO_FILL_IO_EAST_15_400
*834 IO_FILL_IO_EAST_15_500
*835 IO_FILL_IO_EAST_15_600
*836 IO_FILL_IO_EAST_15_700
*837 IO_FILL_IO_EAST_15_800
*838 IO_FILL_IO_EAST_15_900
*839 IO_FILL_IO_EAST_16_0
*840 IO_FILL_IO_EAST_16_100
*841 IO_FILL_IO_EAST_16_1000
*842 IO_FILL_IO_EAST_16_1100
*843 IO_FILL_IO_EAST_16_1200
*844 IO_FILL_IO_EAST_16_1300
*845 IO_FILL_IO_EAST_16_1350
*846 IO_FILL_IO_EAST_16_200
*847 IO_FILL_IO_EAST_16_300
*848 IO_FILL_IO_EAST_16_400
*849 IO_FILL_IO_EAST_16_500
*850 IO_FILL_IO_EAST_16_600
*851 IO_FILL_IO_EAST_16_700
*852 IO_FILL_IO_EAST_16_800
*853 IO_FILL_IO_EAST_16_900
*854 IO_FILL_IO_EAST_17_0
*855 IO_FILL_IO_EAST_17_100
*856 IO_FILL_IO_EAST_17_1000
*857 IO_FILL_IO_EAST_17_1100
*858 IO_FILL_IO_EAST_17_1200
*859 IO_FILL_IO_EAST_17_1300
*860 IO_FILL_IO_EAST_17_1350
*861 IO_FILL_IO_EAST_17_200
*862 IO_FILL_IO_EAST_17_300
*863 IO_FILL_IO_EAST_17_400
*864 IO_FILL_IO_EAST_17_500
*865 IO_FILL_IO_EAST_17_600
*866 IO_FILL_IO_EAST_17_700
*867 IO_FILL_IO_EAST_17_800
*868 IO_FILL_IO_EAST_17_900
*869 IO_FILL_IO_EAST_18_0
*870 IO_FILL_IO_EAST_18_100
*871 IO_FILL_IO_EAST_18_1000
*872 IO_FILL_IO_EAST_18_1100
*873 IO_FILL_IO_EAST_18_1200
*874 IO_FILL_IO_EAST_18_1300
*875 IO_FILL_IO_EAST_18_1350
*876 IO_FILL_IO_EAST_18_200
*877 IO_FILL_IO_EAST_18_300
*878 IO_FILL_IO_EAST_18_400
*879 IO_FILL_IO_EAST_18_500
*880 IO_FILL_IO_EAST_18_600
*881 IO_FILL_IO_EAST_18_700
*882 IO_FILL_IO_EAST_18_800
*883 IO_FILL_IO_EAST_18_900
*884 IO_FILL_IO_EAST_19_0
*885 IO_FILL_IO_EAST_19_100
*886 IO_FILL_IO_EAST_19_1000
*887 IO_FILL_IO_EAST_19_1100
*888 IO_FILL_IO_EAST_19_1200
*889 IO_FILL_IO_EAST_19_1300
*890 IO_FILL_IO_EAST_19_1350
*891 IO_FILL_IO_EAST_19_200
*892 IO_FILL_IO_EAST_19_300
*893 IO_FILL_IO_EAST_19_400
*894 IO_FILL_IO_EAST_19_500
*895 IO_FILL_IO_EAST_19_600
*896 IO_FILL_IO_EAST_19_700
*897 IO_FILL_IO_EAST_19_800
*898 IO_FILL_IO_EAST_19_900
*899 IO_FILL_IO_EAST_1_0
*900 IO_FILL_IO_EAST_1_100
*901 IO_FILL_IO_EAST_1_1000
*902 IO_FILL_IO_EAST_1_1100
*903 IO_FILL_IO_EAST_1_1200
*904 IO_FILL_IO_EAST_1_1300
*905 IO_FILL_IO_EAST_1_1350
*906 IO_FILL_IO_EAST_1_200
*907 IO_FILL_IO_EAST_1_300
*908 IO_FILL_IO_EAST_1_400
*909 IO_FILL_IO_EAST_1_500
*910 IO_FILL_IO_EAST_1_600
*911 IO_FILL_IO_EAST_1_700
*912 IO_FILL_IO_EAST_1_800
*913 IO_FILL_IO_EAST_1_900
*914 IO_FILL_IO_EAST_20_0
*915 IO_FILL_IO_EAST_20_100
*916 IO_FILL_IO_EAST_20_1000
*917 IO_FILL_IO_EAST_20_1100
*918 IO_FILL_IO_EAST_20_1200
*919 IO_FILL_IO_EAST_20_1300
*920 IO_FILL_IO_EAST_20_1350
*921 IO_FILL_IO_EAST_20_1360
*922 IO_FILL_IO_EAST_20_1370
*923 IO_FILL_IO_EAST_20_200
*924 IO_FILL_IO_EAST_20_300
*925 IO_FILL_IO_EAST_20_400
*926 IO_FILL_IO_EAST_20_500
*927 IO_FILL_IO_EAST_20_600
*928 IO_FILL_IO_EAST_20_700
*929 IO_FILL_IO_EAST_20_800
*930 IO_FILL_IO_EAST_20_900
*931 IO_FILL_IO_EAST_2_0
*932 IO_FILL_IO_EAST_2_100
*933 IO_FILL_IO_EAST_2_1000
*934 IO_FILL_IO_EAST_2_1100
*935 IO_FILL_IO_EAST_2_1200
*936 IO_FILL_IO_EAST_2_1300
*937 IO_FILL_IO_EAST_2_1350
*938 IO_FILL_IO_EAST_2_200
*939 IO_FILL_IO_EAST_2_300
*940 IO_FILL_IO_EAST_2_400
*941 IO_FILL_IO_EAST_2_500
*942 IO_FILL_IO_EAST_2_600
*943 IO_FILL_IO_EAST_2_700
*944 IO_FILL_IO_EAST_2_800
*945 IO_FILL_IO_EAST_2_900
*946 IO_FILL_IO_EAST_3_0
*947 IO_FILL_IO_EAST_3_100
*948 IO_FILL_IO_EAST_3_1000
*949 IO_FILL_IO_EAST_3_1100
*950 IO_FILL_IO_EAST_3_1200
*951 IO_FILL_IO_EAST_3_1300
*952 IO_FILL_IO_EAST_3_1350
*953 IO_FILL_IO_EAST_3_200
*954 IO_FILL_IO_EAST_3_300
*955 IO_FILL_IO_EAST_3_400
*956 IO_FILL_IO_EAST_3_500
*957 IO_FILL_IO_EAST_3_600
*958 IO_FILL_IO_EAST_3_700
*959 IO_FILL_IO_EAST_3_800
*960 IO_FILL_IO_EAST_3_900
*961 IO_FILL_IO_EAST_4_0
*962 IO_FILL_IO_EAST_4_100
*963 IO_FILL_IO_EAST_4_1000
*964 IO_FILL_IO_EAST_4_1100
*965 IO_FILL_IO_EAST_4_1200
*966 IO_FILL_IO_EAST_4_1300
*967 IO_FILL_IO_EAST_4_1350
*968 IO_FILL_IO_EAST_4_200
*969 IO_FILL_IO_EAST_4_300
*970 IO_FILL_IO_EAST_4_400
*971 IO_FILL_IO_EAST_4_500
*972 IO_FILL_IO_EAST_4_600
*973 IO_FILL_IO_EAST_4_700
*974 IO_FILL_IO_EAST_4_800
*975 IO_FILL_IO_EAST_4_900
*976 IO_FILL_IO_EAST_5_0
*977 IO_FILL_IO_EAST_5_100
*978 IO_FILL_IO_EAST_5_1000
*979 IO_FILL_IO_EAST_5_1100
*980 IO_FILL_IO_EAST_5_1200
*981 IO_FILL_IO_EAST_5_1300
*982 IO_FILL_IO_EAST_5_1350
*983 IO_FILL_IO_EAST_5_200
*984 IO_FILL_IO_EAST_5_300
*985 IO_FILL_IO_EAST_5_400
*986 IO_FILL_IO_EAST_5_500
*987 IO_FILL_IO_EAST_5_600
*988 IO_FILL_IO_EAST_5_700
*989 IO_FILL_IO_EAST_5_800
*990 IO_FILL_IO_EAST_5_900
*991 IO_FILL_IO_EAST_6_0
*992 IO_FILL_IO_EAST_6_100
*993 IO_FILL_IO_EAST_6_1000
*994 IO_FILL_IO_EAST_6_1100
*995 IO_FILL_IO_EAST_6_1200
*996 IO_FILL_IO_EAST_6_1300
*997 IO_FILL_IO_EAST_6_1350
*998 IO_FILL_IO_EAST_6_200
*999 IO_FILL_IO_EAST_6_300
*1000 IO_FILL_IO_EAST_6_400
*1001 IO_FILL_IO_EAST_6_500
*1002 IO_FILL_IO_EAST_6_600
*1003 IO_FILL_IO_EAST_6_700
*1004 IO_FILL_IO_EAST_6_800
*1005 IO_FILL_IO_EAST_6_900
*1006 IO_FILL_IO_EAST_7_0
*1007 IO_FILL_IO_EAST_7_100
*1008 IO_FILL_IO_EAST_7_1000
*1009 IO_FILL_IO_EAST_7_1100
*1010 IO_FILL_IO_EAST_7_1200
*1011 IO_FILL_IO_EAST_7_1300
*1012 IO_FILL_IO_EAST_7_1350
*1013 IO_FILL_IO_EAST_7_200
*1014 IO_FILL_IO_EAST_7_300
*1015 IO_FILL_IO_EAST_7_400
*1016 IO_FILL_IO_EAST_7_500
*1017 IO_FILL_IO_EAST_7_600
*1018 IO_FILL_IO_EAST_7_700
*1019 IO_FILL_IO_EAST_7_800
*1020 IO_FILL_IO_EAST_7_900
*1021 IO_FILL_IO_EAST_8_0
*1022 IO_FILL_IO_EAST_8_100
*1023 IO_FILL_IO_EAST_8_1000
*1024 IO_FILL_IO_EAST_8_1100
*1025 IO_FILL_IO_EAST_8_1200
*1026 IO_FILL_IO_EAST_8_1300
*1027 IO_FILL_IO_EAST_8_1350
*1028 IO_FILL_IO_EAST_8_200
*1029 IO_FILL_IO_EAST_8_300
*1030 IO_FILL_IO_EAST_8_400
*1031 IO_FILL_IO_EAST_8_500
*1032 IO_FILL_IO_EAST_8_600
*1033 IO_FILL_IO_EAST_8_700
*1034 IO_FILL_IO_EAST_8_800
*1035 IO_FILL_IO_EAST_8_900
*1036 IO_FILL_IO_EAST_9_0
*1037 IO_FILL_IO_EAST_9_100
*1038 IO_FILL_IO_EAST_9_1000
*1039 IO_FILL_IO_EAST_9_1100
*1040 IO_FILL_IO_EAST_9_1200
*1041 IO_FILL_IO_EAST_9_1300
*1042 IO_FILL_IO_EAST_9_1350
*1043 IO_FILL_IO_EAST_9_200
*1044 IO_FILL_IO_EAST_9_300
*1045 IO_FILL_IO_EAST_9_400
*1046 IO_FILL_IO_EAST_9_500
*1047 IO_FILL_IO_EAST_9_600
*1048 IO_FILL_IO_EAST_9_700
*1049 IO_FILL_IO_EAST_9_800
*1050 IO_FILL_IO_EAST_9_900
*1051 IO_FILL_IO_NORTH_0_0
*1052 IO_FILL_IO_NORTH_0_100
*1053 IO_FILL_IO_NORTH_0_1000
*1054 IO_FILL_IO_NORTH_0_1050
*1055 IO_FILL_IO_NORTH_0_1060
*1056 IO_FILL_IO_NORTH_0_1070
*1057 IO_FILL_IO_NORTH_0_1071
*1058 IO_FILL_IO_NORTH_0_1072
*1059 IO_FILL_IO_NORTH_0_1073
*1060 IO_FILL_IO_NORTH_0_1074
*1061 IO_FILL_IO_NORTH_0_200
*1062 IO_FILL_IO_NORTH_0_300
*1063 IO_FILL_IO_NORTH_0_400
*1064 IO_FILL_IO_NORTH_0_500
*1065 IO_FILL_IO_NORTH_0_600
*1066 IO_FILL_IO_NORTH_0_700
*1067 IO_FILL_IO_NORTH_0_800
*1068 IO_FILL_IO_NORTH_0_900
*1069 IO_FILL_IO_NORTH_10_0
*1070 IO_FILL_IO_NORTH_10_100
*1071 IO_FILL_IO_NORTH_10_1000
*1072 IO_FILL_IO_NORTH_10_200
*1073 IO_FILL_IO_NORTH_10_300
*1074 IO_FILL_IO_NORTH_10_400
*1075 IO_FILL_IO_NORTH_10_500
*1076 IO_FILL_IO_NORTH_10_600
*1077 IO_FILL_IO_NORTH_10_700
*1078 IO_FILL_IO_NORTH_10_800
*1079 IO_FILL_IO_NORTH_10_900
*1080 IO_FILL_IO_NORTH_11_0
*1081 IO_FILL_IO_NORTH_11_100
*1082 IO_FILL_IO_NORTH_11_1000
*1083 IO_FILL_IO_NORTH_11_200
*1084 IO_FILL_IO_NORTH_11_300
*1085 IO_FILL_IO_NORTH_11_400
*1086 IO_FILL_IO_NORTH_11_500
*1087 IO_FILL_IO_NORTH_11_600
*1088 IO_FILL_IO_NORTH_11_700
*1089 IO_FILL_IO_NORTH_11_800
*1090 IO_FILL_IO_NORTH_11_900
*1091 IO_FILL_IO_NORTH_12_0
*1092 IO_FILL_IO_NORTH_12_100
*1093 IO_FILL_IO_NORTH_12_1000
*1094 IO_FILL_IO_NORTH_12_200
*1095 IO_FILL_IO_NORTH_12_300
*1096 IO_FILL_IO_NORTH_12_400
*1097 IO_FILL_IO_NORTH_12_500
*1098 IO_FILL_IO_NORTH_12_600
*1099 IO_FILL_IO_NORTH_12_700
*1100 IO_FILL_IO_NORTH_12_800
*1101 IO_FILL_IO_NORTH_12_900
*1102 IO_FILL_IO_NORTH_13_0
*1103 IO_FILL_IO_NORTH_13_100
*1104 IO_FILL_IO_NORTH_13_1000
*1105 IO_FILL_IO_NORTH_13_200
*1106 IO_FILL_IO_NORTH_13_300
*1107 IO_FILL_IO_NORTH_13_400
*1108 IO_FILL_IO_NORTH_13_500
*1109 IO_FILL_IO_NORTH_13_600
*1110 IO_FILL_IO_NORTH_13_700
*1111 IO_FILL_IO_NORTH_13_800
*1112 IO_FILL_IO_NORTH_13_900
*1113 IO_FILL_IO_NORTH_14_0
*1114 IO_FILL_IO_NORTH_14_100
*1115 IO_FILL_IO_NORTH_14_1000
*1116 IO_FILL_IO_NORTH_14_200
*1117 IO_FILL_IO_NORTH_14_300
*1118 IO_FILL_IO_NORTH_14_400
*1119 IO_FILL_IO_NORTH_14_500
*1120 IO_FILL_IO_NORTH_14_600
*1121 IO_FILL_IO_NORTH_14_700
*1122 IO_FILL_IO_NORTH_14_800
*1123 IO_FILL_IO_NORTH_14_900
*1124 IO_FILL_IO_NORTH_15_0
*1125 IO_FILL_IO_NORTH_15_100
*1126 IO_FILL_IO_NORTH_15_1000
*1127 IO_FILL_IO_NORTH_15_200
*1128 IO_FILL_IO_NORTH_15_300
*1129 IO_FILL_IO_NORTH_15_400
*1130 IO_FILL_IO_NORTH_15_500
*1131 IO_FILL_IO_NORTH_15_600
*1132 IO_FILL_IO_NORTH_15_700
*1133 IO_FILL_IO_NORTH_15_800
*1134 IO_FILL_IO_NORTH_15_900
*1135 IO_FILL_IO_NORTH_16_0
*1136 IO_FILL_IO_NORTH_16_100
*1137 IO_FILL_IO_NORTH_16_1000
*1138 IO_FILL_IO_NORTH_16_200
*1139 IO_FILL_IO_NORTH_16_300
*1140 IO_FILL_IO_NORTH_16_400
*1141 IO_FILL_IO_NORTH_16_500
*1142 IO_FILL_IO_NORTH_16_600
*1143 IO_FILL_IO_NORTH_16_700
*1144 IO_FILL_IO_NORTH_16_800
*1145 IO_FILL_IO_NORTH_16_900
*1146 IO_FILL_IO_NORTH_17_0
*1147 IO_FILL_IO_NORTH_17_100
*1148 IO_FILL_IO_NORTH_17_1000
*1149 IO_FILL_IO_NORTH_17_1050
*1150 IO_FILL_IO_NORTH_17_1060
*1151 IO_FILL_IO_NORTH_17_1070
*1152 IO_FILL_IO_NORTH_17_1071
*1153 IO_FILL_IO_NORTH_17_1072
*1154 IO_FILL_IO_NORTH_17_1073
*1155 IO_FILL_IO_NORTH_17_1074
*1156 IO_FILL_IO_NORTH_17_200
*1157 IO_FILL_IO_NORTH_17_300
*1158 IO_FILL_IO_NORTH_17_400
*1159 IO_FILL_IO_NORTH_17_500
*1160 IO_FILL_IO_NORTH_17_600