* NGSPICE file created from chip_top.ext - technology: gf180mcuD

* Black-box entry subcircuit for gf180mcu_fd_io__bi_24t abstract view
.subckt gf180mcu_fd_io__bi_24t A CS DVDD DVSS IE OE PAD PD PU SL VDD VSS Y
.ends

* Black-box entry subcircuit for gf180mcu_fd_io__fill10 abstract view
.subckt gf180mcu_fd_io__fill10 DVDD DVSS VDD VSS
.ends

* Black-box entry subcircuit for gf180mcu_fd_io__fill5 abstract view
.subckt gf180mcu_fd_io__fill5 DVDD DVSS VDD VSS
.ends

* Black-box entry subcircuit for gf180_ram_512x8_wrapper_as2650 abstract view
.subckt gf180_ram_512x8_wrapper_as2650 A[0] A[1] A[2] A[3] A[4] A[5] A[6] A[7] A[8]
+ CEN CLK D[0] D[1] D[2] D[3] D[4] D[5] D[6] D[7] GWEN Q[0] Q[1] Q[2] Q[3] Q[4] Q[5]
+ Q[6] Q[7] VDD VSS WEN[0] WEN[1] WEN[2] WEN[3] WEN[4] WEN[5] WEN[6] WEN[7]
.ends

* Black-box entry subcircuit for gf180mcu_ws_io__dvdd abstract view
.subckt gf180mcu_ws_io__dvdd DVDD DVSS VSS
.ends

* Black-box entry subcircuit for gf180mcu_ws_io__dvss abstract view
.subckt gf180mcu_ws_io__dvss DVDD DVSS VDD
.ends

* Black-box entry subcircuit for gf180mcu_fd_io__fill1 abstract view
.subckt gf180mcu_fd_io__fill1 DVDD DVSS VDD VSS
.ends

* Black-box entry subcircuit for timers abstract view
.subckt timers VDD VSS addr[0] addr[1] addr[2] addr[3] addr[4] addr[5] bus_cyc bus_we
+ clk_i data_in[0] data_in[1] data_in[2] data_in[3] data_in[4] data_in[5] data_in[6]
+ data_in[7] data_out[0] data_out[1] data_out[2] data_out[3] data_out[4] data_out[5]
+ data_out[6] data_out[7] irq1 irq2 irq5 pwm0 pwm1 pwm2 rst tmr0_clk tmr0_o tmr1_clk
+ tmr1_o
.ends

* Black-box entry subcircuit for avali_logo abstract view
.subckt avali_logo
.ends

* Black-box entry subcircuit for gf180mcu_fd_io__cor abstract view
.subckt gf180mcu_fd_io__cor DVDD DVSS VDD VSS
.ends

* Black-box entry subcircuit for unused abstract view
.subckt unused VDD VSS clk_i io_cs[0] io_cs[10] io_cs[11] io_cs[12] io_cs[13] io_cs[14]
+ io_cs[15] io_cs[1] io_cs[2] io_cs[3] io_cs[4] io_cs[5] io_cs[6] io_cs[7] io_cs[8]
+ io_cs[9] io_ie[0] io_ie[10] io_ie[11] io_ie[12] io_ie[13] io_ie[14] io_ie[15] io_ie[1]
+ io_ie[2] io_ie[3] io_ie[4] io_ie[5] io_ie[6] io_ie[7] io_ie[8] io_ie[9] io_in[0]
+ io_in[10] io_in[11] io_in[12] io_in[13] io_in[14] io_in[15] io_in[1] io_in[2] io_in[3]
+ io_in[4] io_in[5] io_in[6] io_in[7] io_in[8] io_in[9] io_oe[0] io_oe[10] io_oe[11]
+ io_oe[12] io_oe[13] io_oe[14] io_oe[15] io_oe[1] io_oe[2] io_oe[3] io_oe[4] io_oe[5]
+ io_oe[6] io_oe[7] io_oe[8] io_oe[9] io_out[0] io_out[10] io_out[11] io_out[12] io_out[13]
+ io_out[14] io_out[15] io_out[1] io_out[2] io_out[3] io_out[4] io_out[5] io_out[6]
+ io_out[7] io_out[8] io_out[9] io_pd[0] io_pd[10] io_pd[11] io_pd[12] io_pd[13] io_pd[14]
+ io_pd[15] io_pd[1] io_pd[2] io_pd[3] io_pd[4] io_pd[5] io_pd[6] io_pd[7] io_pd[8]
+ io_pd[9] io_pu[0] io_pu[10] io_pu[11] io_pu[12] io_pu[13] io_pu[14] io_pu[15] io_pu[1]
+ io_pu[2] io_pu[3] io_pu[4] io_pu[5] io_pu[6] io_pu[7] io_pu[8] io_pu[9] io_sl[0]
+ io_sl[10] io_sl[11] io_sl[12] io_sl[13] io_sl[14] io_sl[15] io_sl[1] io_sl[2] io_sl[3]
+ io_sl[4] io_sl[5] io_sl[6] io_sl[7] io_sl[8] io_sl[9] rst
.ends

* Black-box entry subcircuit for sid abstract view
.subckt sid DAC_clk DAC_dat_1 DAC_dat_2 DAC_le VDD VSS addr[0] addr[1] addr[2] addr[3]
+ addr[4] addr[5] bus_cyc bus_in[0] bus_in[1] bus_in[2] bus_in[3] bus_in[4] bus_in[5]
+ bus_in[6] bus_in[7] bus_out[0] bus_out[1] bus_out[2] bus_out[3] bus_out[4] bus_out[5]
+ bus_out[6] bus_out[7] bus_we clk rst
.ends

* Black-box entry subcircuit for gf180mcu_fd_io__fillnc abstract view
.subckt gf180mcu_fd_io__fillnc DVDD DVSS VDD VSS
.ends

* Black-box entry subcircuit for gf180mcu_ws_ip__id abstract view
.subckt gf180mcu_ws_ip__id
.ends

* Black-box entry subcircuit for gpios abstract view
.subckt gpios DAC_clk DAC_d1 DAC_d2 DAC_le RXD TXD VDD VSS addr[0] addr[1] addr[2]
+ addr[3] bus_cyc bus_we clk_i data_in[0] data_in[1] data_in[2] data_in[3] data_in[4]
+ data_in[5] data_in[6] data_in[7] data_out[0] data_out[1] data_out[2] data_out[3]
+ data_out[4] data_out[5] data_out[6] data_out[7] io_cs[0] io_cs[10] io_cs[11] io_cs[12]
+ io_cs[13] io_cs[14] io_cs[15] io_cs[1] io_cs[2] io_cs[3] io_cs[4] io_cs[5] io_cs[6]
+ io_cs[7] io_cs[8] io_cs[9] io_ie[0] io_ie[10] io_ie[11] io_ie[12] io_ie[13] io_ie[14]
+ io_ie[15] io_ie[1] io_ie[2] io_ie[3] io_ie[4] io_ie[5] io_ie[6] io_ie[7] io_ie[8]
+ io_ie[9] io_in[0] io_in[10] io_in[11] io_in[12] io_in[13] io_in[14] io_in[15] io_in[1]
+ io_in[2] io_in[3] io_in[4] io_in[5] io_in[6] io_in[7] io_in[8] io_in[9] io_oe[0]
+ io_oe[10] io_oe[11] io_oe[12] io_oe[13] io_oe[14] io_oe[15] io_oe[1] io_oe[2] io_oe[3]
+ io_oe[4] io_oe[5] io_oe[6] io_oe[7] io_oe[8] io_oe[9] io_out[0] io_out[10] io_out[11]
+ io_out[12] io_out[13] io_out[14] io_out[15] io_out[1] io_out[2] io_out[3] io_out[4]
+ io_out[5] io_out[6] io_out[7] io_out[8] io_out[9] io_pd[0] io_pd[10] io_pd[11] io_pd[12]
+ io_pd[13] io_pd[14] io_pd[15] io_pd[1] io_pd[2] io_pd[3] io_pd[4] io_pd[5] io_pd[6]
+ io_pd[7] io_pd[8] io_pd[9] io_pu[0] io_pu[10] io_pu[11] io_pu[12] io_pu[13] io_pu[14]
+ io_pu[15] io_pu[1] io_pu[2] io_pu[3] io_pu[4] io_pu[5] io_pu[6] io_pu[7] io_pu[8]
+ io_pu[9] io_sl[0] io_sl[10] io_sl[11] io_sl[12] io_sl[13] io_sl[14] io_sl[15] io_sl[1]
+ io_sl[2] io_sl[3] io_sl[4] io_sl[5] io_sl[6] io_sl[7] io_sl[8] io_sl[9] irq0 irq6
+ irq7 pwm0 pwm1 pwm2 rst tmr0_clk tmr0_o tmr1_clk tmr1_o
.ends

* Black-box entry subcircuit for serial_ports abstract view
.subckt serial_ports RXD TXD VDD VSS addr[0] addr[1] addr[2] bus_cyc bus_we clk_i
+ data_in[0] data_in[1] data_in[2] data_in[3] data_in[4] data_in[5] data_in[6] data_in[7]
+ data_out[0] data_out[1] data_out[2] data_out[3] data_out[4] data_out[5] data_out[6]
+ data_out[7] io_cs[0] io_cs[1] io_cs[2] io_ie[0] io_ie[1] io_ie[2] io_in io_oe[0]
+ io_oe[1] io_oe[2] io_out[0] io_out[1] io_out[2] io_pd[0] io_pd[1] io_pd[2] io_pu[0]
+ io_pu[1] io_pu[2] io_sl[0] io_sl[1] io_sl[2] irq3 rst
.ends

* Black-box entry subcircuit for gf180mcu_ws_ip__logo abstract view
.subckt gf180mcu_ws_ip__logo
.ends

* Black-box entry subcircuit for ram_controller abstract view
.subckt ram_controller A_all[0] A_all[1] A_all[2] A_all[3] A_all[4] A_all[5] A_all[6]
+ A_all[7] A_all[8] CEN_all D_all[0] D_all[1] D_all[2] D_all[3] D_all[4] D_all[5]
+ D_all[6] D_all[7] GWEN_0 GWEN_1 GWEN_2 GWEN_3 GWEN_4 GWEN_5 GWEN_6 GWEN_7 Q0[0]
+ Q0[1] Q0[2] Q0[3] Q0[4] Q0[5] Q0[6] Q0[7] Q1[0] Q1[1] Q1[2] Q1[3] Q1[4] Q1[5] Q1[6]
+ Q1[7] Q2[0] Q2[1] Q2[2] Q2[3] Q2[4] Q2[5] Q2[6] Q2[7] Q3[0] Q3[1] Q3[2] Q3[3] Q3[4]
+ Q3[5] Q3[6] Q3[7] Q4[0] Q4[1] Q4[2] Q4[3] Q4[4] Q4[5] Q4[6] Q4[7] Q5[0] Q5[1] Q5[2]
+ Q5[3] Q5[4] Q5[5] Q5[6] Q5[7] Q6[0] Q6[1] Q6[2] Q6[3] Q6[4] Q6[5] Q6[6] Q6[7] Q7[0]
+ Q7[1] Q7[2] Q7[3] Q7[4] Q7[5] Q7[6] Q7[7] VDD VSS WEN_all[0] WEN_all[1] WEN_all[2]
+ WEN_all[3] WEN_all[4] WEN_all[5] WEN_all[6] WEN_all[7] WEb_ram bus_in[0] bus_in[1]
+ bus_in[2] bus_in[3] bus_in[4] bus_in[5] bus_in[6] bus_in[7] bus_out[0] bus_out[1]
+ bus_out[2] bus_out[3] bus_out[4] bus_out[5] bus_out[6] bus_out[7] clk_i ram_enabled
+ requested_addr[0] requested_addr[10] requested_addr[11] requested_addr[12] requested_addr[13]
+ requested_addr[14] requested_addr[15] requested_addr[1] requested_addr[2] requested_addr[3]
+ requested_addr[4] requested_addr[5] requested_addr[6] requested_addr[7] requested_addr[8]
+ requested_addr[9] rst
.ends

* Black-box entry subcircuit for gf180mcu_fd_io__in_c abstract view
.subckt gf180mcu_fd_io__in_c DVDD DVSS PAD PD PU VDD VSS Y
.ends

* Black-box entry subcircuit for gf180mcu_fd_io__dvss abstract view
.subckt gf180mcu_fd_io__dvss DVDD DVSS VDD
.ends

* Black-box entry subcircuit for gf180mcu_fd_io__in_s abstract view
.subckt gf180mcu_fd_io__in_s DVDD DVSS PAD PD PU VDD VSS Y
.ends

* Black-box entry subcircuit for boot_rom abstract view
.subckt boot_rom VDD VSS bus_out[0] bus_out[1] bus_out[2] bus_out[3] bus_out[4] bus_out[5]
+ bus_out[6] bus_out[7] clk_i last_addr[0] last_addr[1] last_addr[2] last_addr[3]
+ last_addr[4] last_addr[5] last_addr[6] last_addr[7] rst
.ends

* Black-box entry subcircuit for wrapped_as2650 abstract view
.subckt wrapped_as2650 VDD VSS WEb_ram boot_rom_en bus_addr[0] bus_addr[1] bus_addr[2]
+ bus_addr[3] bus_addr[4] bus_addr[5] bus_cyc bus_data_out[0] bus_data_out[1] bus_data_out[2]
+ bus_data_out[3] bus_data_out[4] bus_data_out[5] bus_data_out[6] bus_data_out[7]
+ bus_in_gpios[0] bus_in_gpios[1] bus_in_gpios[2] bus_in_gpios[3] bus_in_gpios[4]
+ bus_in_gpios[5] bus_in_gpios[6] bus_in_gpios[7] bus_in_serial_ports[0] bus_in_serial_ports[1]
+ bus_in_serial_ports[2] bus_in_serial_ports[3] bus_in_serial_ports[4] bus_in_serial_ports[5]
+ bus_in_serial_ports[6] bus_in_serial_ports[7] bus_in_sid[0] bus_in_sid[1] bus_in_sid[2]
+ bus_in_sid[3] bus_in_sid[4] bus_in_sid[5] bus_in_sid[6] bus_in_sid[7] bus_in_timers[0]
+ bus_in_timers[1] bus_in_timers[2] bus_in_timers[3] bus_in_timers[4] bus_in_timers[5]
+ bus_in_timers[6] bus_in_timers[7] bus_we_gpios bus_we_serial_ports bus_we_sid bus_we_timers
+ clk_i const_zero[0] const_zero[1] const_zero[2] const_zero[3] io_cs[0] io_cs[10]
+ io_cs[11] io_cs[12] io_cs[13] io_cs[14] io_cs[15] io_cs[16] io_cs[17] io_cs[18]
+ io_cs[1] io_cs[2] io_cs[3] io_cs[4] io_cs[5] io_cs[6] io_cs[7] io_cs[8] io_cs[9]
+ io_ie[0] io_ie[10] io_ie[11] io_ie[12] io_ie[13] io_ie[14] io_ie[15] io_ie[16] io_ie[17]
+ io_ie[18] io_ie[1] io_ie[2] io_ie[3] io_ie[4] io_ie[5] io_ie[6] io_ie[7] io_ie[8]
+ io_ie[9] io_in[0] io_in[10] io_in[11] io_in[12] io_in[13] io_in[14] io_in[15] io_in[16]
+ io_in[17] io_in[18] io_in[1] io_in[2] io_in[3] io_in[4] io_in[5] io_in[6] io_in[7]
+ io_in[8] io_in[9] io_oe[0] io_oe[10] io_oe[11] io_oe[12] io_oe[13] io_oe[14] io_oe[15]
+ io_oe[16] io_oe[17] io_oe[18] io_oe[1] io_oe[2] io_oe[3] io_oe[4] io_oe[5] io_oe[6]
+ io_oe[7] io_oe[8] io_oe[9] io_out[0] io_out[10] io_out[11] io_out[12] io_out[13]
+ io_out[14] io_out[15] io_out[16] io_out[17] io_out[18] io_out[1] io_out[2] io_out[3]
+ io_out[4] io_out[5] io_out[6] io_out[7] io_out[8] io_out[9] io_pd[0] io_pd[10] io_pd[11]
+ io_pd[12] io_pd[13] io_pd[14] io_pd[15] io_pd[16] io_pd[17] io_pd[18] io_pd[1] io_pd[2]
+ io_pd[3] io_pd[4] io_pd[5] io_pd[6] io_pd[7] io_pd[8] io_pd[9] io_pu[0] io_pu[10]
+ io_pu[11] io_pu[12] io_pu[13] io_pu[14] io_pu[15] io_pu[16] io_pu[17] io_pu[18]
+ io_pu[1] io_pu[2] io_pu[3] io_pu[4] io_pu[5] io_pu[6] io_pu[7] io_pu[8] io_pu[9]
+ io_sl[0] io_sl[10] io_sl[11] io_sl[12] io_sl[13] io_sl[14] io_sl[15] io_sl[16] io_sl[17]
+ io_sl[18] io_sl[1] io_sl[2] io_sl[3] io_sl[4] io_sl[5] io_sl[6] io_sl[7] io_sl[8]
+ io_sl[9] irqs[0] irqs[1] irqs[2] irqs[3] irqs[4] irqs[5] irqs[6] last_addr[0] last_addr[10]
+ last_addr[11] last_addr[12] last_addr[13] last_addr[14] last_addr[15] last_addr[1]
+ last_addr[2] last_addr[3] last_addr[4] last_addr[5] last_addr[6] last_addr[7] last_addr[8]
+ last_addr[9] le_hi_act le_lo_act ram_bus_in[0] ram_bus_in[1] ram_bus_in[2] ram_bus_in[3]
+ ram_bus_in[4] ram_bus_in[5] ram_bus_in[6] ram_bus_in[7] ram_enabled requested_addr[0]
+ requested_addr[10] requested_addr[11] requested_addr[12] requested_addr[13] requested_addr[14]
+ requested_addr[15] requested_addr[1] requested_addr[2] requested_addr[3] requested_addr[4]
+ requested_addr[5] requested_addr[6] requested_addr[7] requested_addr[8] requested_addr[9]
+ reset_out rom_bus_in[0] rom_bus_in[1] rom_bus_in[2] rom_bus_in[3] rom_bus_in[4]
+ rom_bus_in[5] rom_bus_in[6] rom_bus_in[7] rom_bus_out[0] rom_bus_out[1] rom_bus_out[2]
+ rom_bus_out[3] rom_bus_out[4] rom_bus_out[5] rom_bus_out[6] rom_bus_out[7] rst_n
.ends

.subckt chip_top VDD VSS bidir_PAD[0] bidir_PAD[10] bidir_PAD[11] bidir_PAD[12] bidir_PAD[13]
+ bidir_PAD[14] bidir_PAD[15] bidir_PAD[16] bidir_PAD[17] bidir_PAD[18] bidir_PAD[19]
+ bidir_PAD[1] bidir_PAD[20] bidir_PAD[21] bidir_PAD[22] bidir_PAD[23] bidir_PAD[24]
+ bidir_PAD[25] bidir_PAD[26] bidir_PAD[27] bidir_PAD[28] bidir_PAD[29] bidir_PAD[2]
+ bidir_PAD[30] bidir_PAD[31] bidir_PAD[32] bidir_PAD[33] bidir_PAD[34] bidir_PAD[35]
+ bidir_PAD[36] bidir_PAD[37] bidir_PAD[38] bidir_PAD[39] bidir_PAD[3] bidir_PAD[40]
+ bidir_PAD[41] bidir_PAD[42] bidir_PAD[43] bidir_PAD[44] bidir_PAD[45] bidir_PAD[46]
+ bidir_PAD[47] bidir_PAD[48] bidir_PAD[49] bidir_PAD[4] bidir_PAD[50] bidir_PAD[51]
+ bidir_PAD[52] bidir_PAD[53] bidir_PAD[5] bidir_PAD[6] bidir_PAD[7] bidir_PAD[8]
+ bidir_PAD[9] clk_PAD rst_n_PAD
Xbidir\[32\].pad bidir_CORE2PAD\[32\] bidir_CORE2PAD_CS\[32\] VDD VSS bidir_CORE2PAD_IE\[32\]
+ bidir_CORE2PAD_OE\[32\] bidir_PAD[32] bidir_CORE2PAD_PD\[32\] bidir_CORE2PAD_PU\[32\]
+ bidir_CORE2PAD_SL\[32\] VDD VSS bidir_PAD2CORE\[32\] gf180mcu_fd_io__bi_24t
XIO_FILL_IO_EAST_9_600 VDD VSS VDD VSS gf180mcu_fd_io__fill10
Xbidir\[47\].pad bidir_CORE2PAD\[47\] bidir_CORE2PAD_CS\[47\] VDD VSS bidir_CORE2PAD_IE\[47\]
+ bidir_CORE2PAD_OE\[47\] bidir_PAD[47] bidir_CORE2PAD_PD\[47\] bidir_CORE2PAD_PU\[47\]
+ bidir_CORE2PAD_SL\[47\] VDD VSS bidir_PAD2CORE\[47\] gf180mcu_fd_io__bi_24t
XIO_FILL_IO_WEST_5_1300 VDD VSS VDD VSS gf180mcu_fd_io__fill5
Xsram2 A_all\[0\] A_all\[1\] A_all\[2\] A_all\[3\] A_all\[4\] A_all\[5\] A_all\[6\]
+ A_all\[7\] A_all\[8\] CEN_all clk_PAD2CORE D_all\[0\] D_all\[1\] D_all\[2\] D_all\[3\]
+ D_all\[4\] D_all\[5\] D_all\[6\] D_all\[7\] GWEN_2 Q2\[0\] Q2\[1\] Q2\[2\] Q2\[3\]
+ Q2\[4\] Q2\[5\] Q2\[6\] Q2\[7\] VDD VSS WEN_all\[0\] WEN_all\[1\] WEN_all\[2\] WEN_all\[3\]
+ WEN_all\[4\] WEN_all\[5\] WEN_all\[6\] WEN_all\[7\] gf180_ram_512x8_wrapper_as2650
XIO_FILL_IO_EAST_1_500 VDD VSS VDD VSS gf180mcu_fd_io__fill10
XIO_FILL_IO_SOUTH_8_100 VDD VSS VDD VSS gf180mcu_fd_io__fill10
XIO_FILL_IO_SOUTH_15_900 VDD VSS VDD VSS gf180mcu_fd_io__fill10
XIO_FILL_IO_EAST_16_300 VDD VSS VDD VSS gf180mcu_fd_io__fill10
XIO_FILL_IO_NORTH_17_300 VDD VSS VDD VSS gf180mcu_fd_io__fill10
XIO_FILL_IO_WEST_18_1300 VDD VSS VDD VSS gf180mcu_fd_io__fill5
XIO_FILL_IO_EAST_12_1200 VDD VSS VDD VSS gf180mcu_fd_io__fill10
XIO_FILL_IO_WEST_10_900 VDD VSS VDD VSS gf180mcu_fd_io__fill10
XIO_FILL_IO_EAST_6_400 VDD VSS VDD VSS gf180mcu_fd_io__fill10
XIO_FILL_IO_SOUTH_12_700 VDD VSS VDD VSS gf180mcu_fd_io__fill10
XIO_FILL_IO_EAST_17_1100 VDD VSS VDD VSS gf180mcu_fd_io__fill10
XIO_FILL_IO_NORTH_14_100 VDD VSS VDD VSS gf180mcu_fd_io__fill10
XIO_FILL_IO_EAST_13_100 VDD VSS VDD VSS gf180mcu_fd_io__fill10
XIO_FILL_IO_WEST_2_1100 VDD VSS VDD VSS gf180mcu_fd_io__fill10
XIO_FILL_IO_NORTH_2_800 VDD VSS VDD VSS gf180mcu_fd_io__fill10
Xdvdd_east_2 VDD VSS VSS gf180mcu_ws_io__dvdd
Xdvss_west_0 VDD VSS VDD gf180mcu_ws_io__dvss
XIO_FILL_IO_WEST_7_1000 VDD VSS VDD VSS gf180mcu_fd_io__fill10
XIO_FILL_IO_SOUTH_3_0 VDD VSS VDD VSS gf180mcu_fd_io__fill10
XIO_FILL_IO_WEST_10_1200 VDD VSS VDD VSS gf180mcu_fd_io__fill10
XIO_FILL_IO_EAST_3_200 VDD VSS VDD VSS gf180mcu_fd_io__fill10
XIO_FILL_IO_EAST_13_1350 VDD VSS VDD VSS gf180mcu_fd_io__fill1
XIO_FILL_IO_WEST_15_1100 VDD VSS VDD VSS gf180mcu_fd_io__fill10
XIO_FILL_IO_WEST_15_800 VDD VSS VDD VSS gf180mcu_fd_io__fill10
XIO_FILL_IO_SOUTH_17_600 VDD VSS VDD VSS gf180mcu_fd_io__fill10
XIO_FILL_IO_NORTH_7_700 VDD VSS VDD VSS gf180mcu_fd_io__fill10
XIO_FILL_IO_WEST_11_1350 VDD VSS VDD VSS gf180mcu_fd_io__fill1
XIO_FILL_IO_EAST_8_100 VDD VSS VDD VSS gf180mcu_fd_io__fill10
Xsram3 A_all\[0\] A_all\[1\] A_all\[2\] A_all\[3\] A_all\[4\] A_all\[5\] A_all\[6\]
+ A_all\[7\] A_all\[8\] CEN_all clk_PAD2CORE D_all\[0\] D_all\[1\] D_all\[2\] D_all\[3\]
+ D_all\[4\] D_all\[5\] D_all\[6\] D_all\[7\] GWEN_3 Q3\[0\] Q3\[1\] Q3\[2\] Q3\[3\]
+ Q3\[4\] Q3\[5\] Q3\[6\] Q3\[7\] VDD VSS WEN_all\[0\] WEN_all\[1\] WEN_all\[2\] WEN_all\[3\]
+ WEN_all\[4\] WEN_all\[5\] WEN_all\[6\] WEN_all\[7\] gf180_ram_512x8_wrapper_as2650
XIO_FILL_IO_WEST_12_600 VDD VSS VDD VSS gf180mcu_fd_io__fill10
XIO_FILL_IO_SOUTH_14_400 VDD VSS VDD VSS gf180mcu_fd_io__fill10
XIO_FILL_IO_NORTH_0_0 VDD VSS VDD VSS gf180mcu_fd_io__fill10
XIO_FILL_IO_SOUTH_2_800 VDD VSS VDD VSS gf180mcu_fd_io__fill10
Xbidir\[31\].pad bidir_CORE2PAD\[31\] bidir_CORE2PAD_CS\[31\] VDD VSS bidir_CORE2PAD_IE\[31\]
+ bidir_CORE2PAD_OE\[31\] bidir_PAD[31] bidir_CORE2PAD_PD\[31\] bidir_CORE2PAD_PU\[31\]
+ bidir_CORE2PAD_SL\[31\] VDD VSS bidir_PAD2CORE\[31\] gf180mcu_fd_io__bi_24t
XIO_FILL_IO_NORTH_4_500 VDD VSS VDD VSS gf180mcu_fd_io__fill10
Xbidir\[46\].pad bidir_CORE2PAD\[46\] bidir_CORE2PAD_CS\[46\] VDD VSS bidir_CORE2PAD_IE\[46\]
+ bidir_CORE2PAD_OE\[46\] bidir_PAD[46] bidir_CORE2PAD_PD\[46\] bidir_CORE2PAD_PU\[46\]
+ bidir_CORE2PAD_SL\[46\] VDD VSS bidir_PAD2CORE\[46\] gf180mcu_fd_io__bi_24t
XIO_FILL_IO_SOUTH_11_200 VDD VSS VDD VSS gf180mcu_fd_io__fill10
XIO_FILL_IO_WEST_4_800 VDD VSS VDD VSS gf180mcu_fd_io__fill10
XIO_FILL_IO_WEST_17_500 VDD VSS VDD VSS gf180mcu_fd_io__fill10
XIO_FILL_IO_EAST_12_0 VDD VSS VDD VSS gf180mcu_fd_io__fill10
XIO_FILL_IO_EAST_2_1200 VDD VSS VDD VSS gf180mcu_fd_io__fill10
XIO_FILL_IO_NORTH_1_300 VDD VSS VDD VSS gf180mcu_fd_io__fill10
Xdvdd_east_3 VDD VSS VSS gf180mcu_ws_io__dvdd
XIO_FILL_IO_EAST_7_1100 VDD VSS VDD VSS gf180mcu_fd_io__fill10
XIO_FILL_IO_SOUTH_7_700 VDD VSS VDD VSS gf180mcu_fd_io__fill10
XIO_FILL_IO_NORTH_9_400 VDD VSS VDD VSS gf180mcu_fd_io__fill10
Xdvss_west_1 VDD VSS VDD gf180mcu_ws_io__dvss
XIO_FILL_IO_EAST_20_1300 VDD VSS VDD VSS gf180mcu_fd_io__fill5
XIO_FILL_IO_NORTH_16_900 VDD VSS VDD VSS gf180mcu_fd_io__fill10
XIO_FILL_IO_EAST_15_900 VDD VSS VDD VSS gf180mcu_fd_io__fill10
XIO_FILL_IO_WEST_14_300 VDD VSS VDD VSS gf180mcu_fd_io__fill10
XIO_FILL_IO_WEST_9_700 VDD VSS VDD VSS gf180mcu_fd_io__fill10
XIO_FILL_IO_WEST_1_600 VDD VSS VDD VSS gf180mcu_fd_io__fill10
XIO_FILL_IO_EAST_3_1350 VDD VSS VDD VSS gf180mcu_fd_io__fill1
XIO_FILL_IO_SOUTH_16_100 VDD VSS VDD VSS gf180mcu_fd_io__fill10
XIO_FILL_IO_NORTH_6_200 VDD VSS VDD VSS gf180mcu_fd_io__fill10
XIO_FILL_IO_SOUTH_4_500 VDD VSS VDD VSS gf180mcu_fd_io__fill10
XIO_FILL_IO_NORTH_0_1000 VDD VSS VDD VSS gf180mcu_fd_io__fill5
XIO_FILL_IO_WEST_20_100 VDD VSS VDD VSS gf180mcu_fd_io__fill10
XIO_FILL_IO_EAST_12_700 VDD VSS VDD VSS gf180mcu_fd_io__fill10
Xsram4 A_all\[0\] A_all\[1\] A_all\[2\] A_all\[3\] A_all\[4\] A_all\[5\] A_all\[6\]
+ A_all\[7\] A_all\[8\] CEN_all clk_PAD2CORE D_all\[0\] D_all\[1\] D_all\[2\] D_all\[3\]
+ D_all\[4\] D_all\[5\] D_all\[6\] D_all\[7\] GWEN_4 Q4\[0\] Q4\[1\] Q4\[2\] Q4\[3\]
+ Q4\[4\] Q4\[5\] Q4\[6\] Q4\[7\] VDD VSS WEN_all\[0\] WEN_all\[1\] WEN_all\[2\] WEN_all\[3\]
+ WEN_all\[4\] WEN_all\[5\] WEN_all\[6\] WEN_all\[7\] gf180_ram_512x8_wrapper_as2650
XIO_FILL_IO_NORTH_13_700 VDD VSS VDD VSS gf180mcu_fd_io__fill10
XIO_FILL_IO_WEST_19_200 VDD VSS VDD VSS gf180mcu_fd_io__fill10
XIO_FILL_IO_WEST_11_100 VDD VSS VDD VSS gf180mcu_fd_io__fill10
XIO_FILL_IO_WEST_6_500 VDD VSS VDD VSS gf180mcu_fd_io__fill10
XIO_FILL_IO_WEST_14_0 VDD VSS VDD VSS gf180mcu_fd_io__fill10
XIO_FILL_IO_SOUTH_1_300 VDD VSS VDD VSS gf180mcu_fd_io__fill10
XIO_FILL_IO_EAST_2_800 VDD VSS VDD VSS gf180mcu_fd_io__fill10
XIO_FILL_IO_SOUTH_9_400 VDD VSS VDD VSS gf180mcu_fd_io__fill10
XIO_FILL_IO_NORTH_16_0 VDD VSS VDD VSS gf180mcu_fd_io__fill10
XIO_FILL_IO_NORTH_12_1000 VDD VSS VDD VSS gf180mcu_fd_io__fill5
XIO_FILL_IO_NORTH_10_500 VDD VSS VDD VSS gf180mcu_fd_io__fill10
XIO_FILL_IO_EAST_17_600 VDD VSS VDD VSS gf180mcu_fd_io__fill10
Xtimers VDD VSS bus_addr\[0\] bus_addr\[1\] bus_addr\[2\] bus_addr\[3\] bus_addr\[4\]
+ bus_addr\[5\] bus_cyc bus_we_timers clk_PAD2CORE bus_data_out\[0\] bus_data_out\[1\]
+ bus_data_out\[2\] bus_data_out\[3\] bus_data_out\[4\] bus_data_out\[5\] bus_data_out\[6\]
+ bus_data_out\[7\] bus_data_timers\[0\] bus_data_timers\[1\] bus_data_timers\[2\]
+ bus_data_timers\[3\] bus_data_timers\[4\] bus_data_timers\[5\] bus_data_timers\[6\]
+ bus_data_timers\[7\] irq1 irq2 irq5 pwm0 pwm1 pwm2 reset tmr0_clk tmr0_o tmr1_clk
+ tmr1_o timers
XIO_FILL_IO_WEST_3_300 VDD VSS VDD VSS gf180mcu_fd_io__fill10
XIO_FILL_IO_WEST_2_0 VDD VSS VDD VSS gf180mcu_fd_io__fill10
XIO_FILL_IO_WEST_20_1000 VDD VSS VDD VSS gf180mcu_fd_io__fill10
XIO_FILL_IO_EAST_7_700 VDD VSS VDD VSS gf180mcu_fd_io__fill10
XIO_FILL_IO_SOUTH_6_200 VDD VSS VDD VSS gf180mcu_fd_io__fill10
Xbidir\[30\].pad bidir_CORE2PAD\[30\] bidir_CORE2PAD_CS\[30\] VDD VSS bidir_CORE2PAD_IE\[30\]
+ bidir_CORE2PAD_OE\[30\] bidir_PAD[30] bidir_CORE2PAD_PD\[30\] bidir_CORE2PAD_PU\[30\]
+ bidir_CORE2PAD_SL\[30\] VDD VSS bidir_PAD2CORE\[30\] gf180mcu_fd_io__bi_24t
Xbidir\[45\].pad bidir_CORE2PAD\[45\] bidir_CORE2PAD_CS\[45\] VDD VSS bidir_CORE2PAD_IE\[45\]
+ bidir_CORE2PAD_OE\[45\] bidir_PAD[45] bidir_CORE2PAD_PD\[45\] bidir_CORE2PAD_PU\[45\]
+ bidir_CORE2PAD_SL\[45\] VDD VSS bidir_PAD2CORE\[45\] gf180mcu_fd_io__bi_24t
Xdvss_west_2 VDD VSS VDD gf180mcu_ws_io__dvss
XIO_FILL_IO_NORTH_15_400 VDD VSS VDD VSS gf180mcu_fd_io__fill10
XIO_FILL_IO_EAST_14_400 VDD VSS VDD VSS gf180mcu_fd_io__fill10
XIO_FILL_IO_WEST_8_1300 VDD VSS VDD VSS gf180mcu_fd_io__fill5
XIO_FILL_IO_WEST_8_200 VDD VSS VDD VSS gf180mcu_fd_io__fill10
XIO_FILL_IO_WEST_0_100 VDD VSS VDD VSS gf180mcu_fd_io__fill10
XIO_FILL_IO_EAST_4_500 VDD VSS VDD VSS gf180mcu_fd_io__fill10
XIO_FILL_IO_EAST_20_200 VDD VSS VDD VSS gf180mcu_fd_io__fill10
XIO_FILL_IO_SOUTH_10_800 VDD VSS VDD VSS gf180mcu_fd_io__fill10
XIO_FILL_IO_EAST_11_200 VDD VSS VDD VSS gf180mcu_fd_io__fill10
XIO_FILL_IO_EAST_10_1300 VDD VSS VDD VSS gf180mcu_fd_io__fill5
Xsram5 A_all\[0\] A_all\[1\] A_all\[2\] A_all\[3\] A_all\[4\] A_all\[5\] A_all\[6\]
+ A_all\[7\] A_all\[8\] CEN_all clk_PAD2CORE D_all\[0\] D_all\[1\] D_all\[2\] D_all\[3\]
+ D_all\[4\] D_all\[5\] D_all\[6\] D_all\[7\] GWEN_5 Q5\[0\] Q5\[1\] Q5\[2\] Q5\[3\]
+ Q5\[4\] Q5\[5\] Q5\[6\] Q5\[7\] VDD VSS WEN_all\[0\] WEN_all\[1\] WEN_all\[2\] WEN_all\[3\]
+ WEN_all\[4\] WEN_all\[5\] WEN_all\[6\] WEN_all\[7\] gf180_ram_512x8_wrapper_as2650
XIO_FILL_IO_NORTH_12_200 VDD VSS VDD VSS gf180mcu_fd_io__fill10
XIO_FILL_IO_EAST_19_300 VDD VSS VDD VSS gf180mcu_fd_io__fill10
XIO_FILL_IO_EAST_15_1200 VDD VSS VDD VSS gf180mcu_fd_io__fill10
XIO_FILL_IO_SOUTH_2_1000 VDD VSS VDD VSS gf180mcu_fd_io__fill5
XIO_FILL_IO_NORTH_0_900 VDD VSS VDD VSS gf180mcu_fd_io__fill10
XIO_FILL_IO_EAST_0_0 VDD VSS VDD VSS gf180mcu_fd_io__fill10
XIO_FILL_IO_WEST_5_1100 VDD VSS VDD VSS gf180mcu_fd_io__fill10
XIO_FILL_IO_WEST_0_1200 VDD VSS VDD VSS gf180mcu_fd_io__fill10
XIO_FILL_IO_EAST_1_300 VDD VSS VDD VSS gf180mcu_fd_io__fill10
XIO_FILL_IO_WEST_13_900 VDD VSS VDD VSS gf180mcu_fd_io__fill10
XIO_FILL_IO_EAST_9_400 VDD VSS VDD VSS gf180mcu_fd_io__fill10
XIO_FILL_IO_SOUTH_15_700 VDD VSS VDD VSS gf180mcu_fd_io__fill10
XIO_FILL_IO_EAST_16_100 VDD VSS VDD VSS gf180mcu_fd_io__fill10
XIO_FILL_IO_WEST_13_1200 VDD VSS VDD VSS gf180mcu_fd_io__fill10
XIO_FILL_IO_NORTH_17_100 VDD VSS VDD VSS gf180mcu_fd_io__fill10
XIO_FILL_IO_EAST_16_1350 VDD VSS VDD VSS gf180mcu_fd_io__fill1
XIO_FILL_IO_WEST_18_1100 VDD VSS VDD VSS gf180mcu_fd_io__fill10
XIO_FILL_IO_NORTH_5_800 VDD VSS VDD VSS gf180mcu_fd_io__fill10
XIO_FILL_IO_WEST_1_1350 VDD VSS VDD VSS gf180mcu_fd_io__fill1
XIO_FILL_IO_EAST_12_1000 VDD VSS VDD VSS gf180mcu_fd_io__fill10
XIO_FILL_IO_WEST_10_700 VDD VSS VDD VSS gf180mcu_fd_io__fill10
XIO_FILL_IO_EAST_6_200 VDD VSS VDD VSS gf180mcu_fd_io__fill10
XIO_FILL_IO_SOUTH_12_500 VDD VSS VDD VSS gf180mcu_fd_io__fill10
XIO_FILL_IO_WEST_18_800 VDD VSS VDD VSS gf180mcu_fd_io__fill10
Xdvss_west_3 VDD VSS VDD gf180mcu_ws_io__dvss
XIO_FILL_IO_WEST_14_1350 VDD VSS VDD VSS gf180mcu_fd_io__fill1
XIO_FILL_IO_NORTH_2_600 VDD VSS VDD VSS gf180mcu_fd_io__fill10
XIO_FILL_IO_SOUTH_1_0 VDD VSS VDD VSS gf180mcu_fd_io__fill10
XIO_FILL_IO_SOUTH_0_900 VDD VSS VDD VSS gf180mcu_fd_io__fill10
XIO_FILL_IO_SOUTH_16_0 VDD VSS VDD VSS gf180mcu_fd_io__fill10
XIO_FILL_IO_WEST_10_1000 VDD VSS VDD VSS gf180mcu_fd_io__fill10
Xbidir\[44\].pad bidir_CORE2PAD\[44\] bidir_CORE2PAD_CS\[44\] VDD VSS bidir_CORE2PAD_IE\[44\]
+ bidir_CORE2PAD_OE\[44\] bidir_PAD[44] bidir_CORE2PAD_PD\[44\] bidir_CORE2PAD_PU\[44\]
+ bidir_CORE2PAD_SL\[44\] VDD VSS bidir_PAD2CORE\[44\] gf180mcu_fd_io__bi_24t
XIO_FILL_IO_WEST_15_600 VDD VSS VDD VSS gf180mcu_fd_io__fill10
XIO_FILL_IO_WEST_2_900 VDD VSS VDD VSS gf180mcu_fd_io__fill10
XIO_FILL_IO_SOUTH_17_400 VDD VSS VDD VSS gf180mcu_fd_io__fill10
Xsram6 A_all\[0\] A_all\[1\] A_all\[2\] A_all\[3\] A_all\[4\] A_all\[5\] A_all\[6\]
+ A_all\[7\] A_all\[8\] CEN_all clk_PAD2CORE D_all\[0\] D_all\[1\] D_all\[2\] D_all\[3\]
+ D_all\[4\] D_all\[5\] D_all\[6\] D_all\[7\] GWEN_6 Q6\[0\] Q6\[1\] Q6\[2\] Q6\[3\]
+ Q6\[4\] Q6\[5\] Q6\[6\] Q6\[7\] VDD VSS WEN_all\[0\] WEN_all\[1\] WEN_all\[2\] WEN_all\[3\]
+ WEN_all\[4\] WEN_all\[5\] WEN_all\[6\] WEN_all\[7\] gf180_ram_512x8_wrapper_as2650
XIO_FILL_IO_NORTH_7_500 VDD VSS VDD VSS gf180mcu_fd_io__fill10
XIO_FILL_IO_SOUTH_5_800 VDD VSS VDD VSS gf180mcu_fd_io__fill10
XIO_FILL_IO_EAST_0_1300 VDD VSS VDD VSS gf180mcu_fd_io__fill5
XIO_FILL_IO_EAST_5_1200 VDD VSS VDD VSS gf180mcu_fd_io__fill10
XIO_FILL_IO_WEST_12_400 VDD VSS VDD VSS gf180mcu_fd_io__fill10
XIO_FILL_IO_WEST_7_800 VDD VSS VDD VSS gf180mcu_fd_io__fill10
XIO_FILL_IO_SOUTH_14_200 VDD VSS VDD VSS gf180mcu_fd_io__fill10
XIO_FILL_IO_SOUTH_2_600 VDD VSS VDD VSS gf180mcu_fd_io__fill10
XIO_FILL_IO_NORTH_4_300 VDD VSS VDD VSS gf180mcu_fd_io__fill10
XIO_FILL_IO_EAST_6_1350 VDD VSS VDD VSS gf180mcu_fd_io__fill1
XIO_FILL_IO_NORTH_11_800 VDD VSS VDD VSS gf180mcu_fd_io__fill10
XIO_FILL_IO_EAST_18_900 VDD VSS VDD VSS gf180mcu_fd_io__fill10
XIO_FILL_IO_EAST_10_800 VDD VSS VDD VSS gf180mcu_fd_io__fill10
XIO_FILL_IO_WEST_4_600 VDD VSS VDD VSS gf180mcu_fd_io__fill10
XIO_FILL_IO_WEST_17_300 VDD VSS VDD VSS gf180mcu_fd_io__fill10
XIO_FILL_IO_EAST_10_0 VDD VSS VDD VSS gf180mcu_fd_io__fill10
XIO_FILL_IO_NORTH_3_1000 VDD VSS VDD VSS gf180mcu_fd_io__fill5
XIO_FILL_IO_EAST_0_900 VDD VSS VDD VSS gf180mcu_fd_io__fill10
XIO_FILL_IO_EAST_2_1000 VDD VSS VDD VSS gf180mcu_fd_io__fill10
XIO_FILL_IO_SOUTH_7_500 VDD VSS VDD VSS gf180mcu_fd_io__fill10
XIO_FILL_IO_NORTH_9_200 VDD VSS VDD VSS gf180mcu_fd_io__fill10
XIO_FILL_IO_NORTH_1_100 VDD VSS VDD VSS gf180mcu_fd_io__fill10
XIO_FILL_IO_NORTH_16_700 VDD VSS VDD VSS gf180mcu_fd_io__fill10
XIO_FILL_IO_EAST_15_700 VDD VSS VDD VSS gf180mcu_fd_io__fill10
XIO_FILL_IO_WEST_14_100 VDD VSS VDD VSS gf180mcu_fd_io__fill10
XIO_FILL_IO_WEST_9_500 VDD VSS VDD VSS gf180mcu_fd_io__fill10
XIO_FILL_IO_WEST_1_400 VDD VSS VDD VSS gf180mcu_fd_io__fill10
XIO_FILL_IO_EAST_20_1100 VDD VSS VDD VSS gf180mcu_fd_io__fill10
XIO_FILL_IO_NORTH_9_0 VDD VSS VDD VSS gf180mcu_fd_io__fill10
XIO_FILL_IO_NORTH_15_1000 VDD VSS VDD VSS gf180mcu_fd_io__fill5
Xsram7 A_all\[0\] A_all\[1\] A_all\[2\] A_all\[3\] A_all\[4\] A_all\[5\] A_all\[6\]
+ A_all\[7\] A_all\[8\] CEN_all clk_PAD2CORE D_all\[0\] D_all\[1\] D_all\[2\] D_all\[3\]
+ D_all\[4\] D_all\[5\] D_all\[6\] D_all\[7\] GWEN_7 Q7\[0\] Q7\[1\] Q7\[2\] Q7\[3\]
+ Q7\[4\] Q7\[5\] Q7\[6\] Q7\[7\] VDD VSS WEN_all\[0\] WEN_all\[1\] WEN_all\[2\] WEN_all\[3\]
+ WEN_all\[4\] WEN_all\[5\] WEN_all\[6\] WEN_all\[7\] gf180_ram_512x8_wrapper_as2650
XIO_FILL_IO_EAST_5_800 VDD VSS VDD VSS gf180mcu_fd_io__fill10
XIO_FILL_IO_SOUTH_4_300 VDD VSS VDD VSS gf180mcu_fd_io__fill10
Xbidir\[43\].pad bidir_CORE2PAD\[43\] bidir_CORE2PAD_CS\[43\] VDD VSS bidir_CORE2PAD_IE\[43\]
+ bidir_CORE2PAD_OE\[43\] bidir_PAD[43] bidir_CORE2PAD_PD\[43\] bidir_CORE2PAD_PU\[43\]
+ bidir_CORE2PAD_SL\[43\] VDD VSS bidir_PAD2CORE\[43\] gf180mcu_fd_io__bi_24t
XIO_FILL_IO_EAST_12_500 VDD VSS VDD VSS gf180mcu_fd_io__fill10
XIO_FILL_IO_NORTH_13_500 VDD VSS VDD VSS gf180mcu_fd_io__fill10
XIO_FILL_IO_WEST_6_300 VDD VSS VDD VSS gf180mcu_fd_io__fill10
XIO_FILL_IO_WEST_12_0 VDD VSS VDD VSS gf180mcu_fd_io__fill10
XIO_FILL_IO_EAST_2_600 VDD VSS VDD VSS gf180mcu_fd_io__fill10
XIO_FILL_IO_SOUTH_1_100 VDD VSS VDD VSS gf180mcu_fd_io__fill10
XIO_FILL_IO_SOUTH_9_200 VDD VSS VDD VSS gf180mcu_fd_io__fill10
XIO_FILL_IO_NORTH_14_0 VDD VSS VDD VSS gf180mcu_fd_io__fill10
XIO_FILL_IO_NORTH_10_300 VDD VSS VDD VSS gf180mcu_fd_io__fill10
XIO_FILL_IO_EAST_17_400 VDD VSS VDD VSS gf180mcu_fd_io__fill10
XIO_FILL_IO_WEST_0_0 VDD VSS VDD VSS gf180mcu_fd_io__fill10
XIO_FILL_IO_WEST_3_100 VDD VSS VDD VSS gf180mcu_fd_io__fill10
XIO_FILL_IO_EAST_18_1200 VDD VSS VDD VSS gf180mcu_fd_io__fill10
XIO_FILL_IO_EAST_13_1300 VDD VSS VDD VSS gf180mcu_fd_io__fill5
XIO_FILL_IO_EAST_7_500 VDD VSS VDD VSS gf180mcu_fd_io__fill10
XIO_FILL_IO_SOUTH_5_1000 VDD VSS VDD VSS gf180mcu_fd_io__fill5
XIO_FILL_IO_SOUTH_13_800 VDD VSS VDD VSS gf180mcu_fd_io__fill10
XIO_FILL_IO_NORTH_15_200 VDD VSS VDD VSS gf180mcu_fd_io__fill10
XIO_FILL_IO_EAST_14_200 VDD VSS VDD VSS gf180mcu_fd_io__fill10
XIO_FILL_IO_WEST_8_1100 VDD VSS VDD VSS gf180mcu_fd_io__fill10
XIO_FILL_IO_WEST_3_1200 VDD VSS VDD VSS gf180mcu_fd_io__fill10
XIO_FILL_IO_NORTH_3_900 VDD VSS VDD VSS gf180mcu_fd_io__fill10
XIO_FILL_IO_WEST_16_1200 VDD VSS VDD VSS gf180mcu_fd_io__fill10
XIO_FILL_IO_WEST_11_1300 VDD VSS VDD VSS gf180mcu_fd_io__fill5
XIO_FILL_IO_EAST_19_1350 VDD VSS VDD VSS gf180mcu_fd_io__fill1
XIO_FILL_IO_WEST_16_900 VDD VSS VDD VSS gf180mcu_fd_io__fill10
XIO_FILL_IO_EAST_4_300 VDD VSS VDD VSS gf180mcu_fd_io__fill10
XIO_FILL_IO_SOUTH_10_600 VDD VSS VDD VSS gf180mcu_fd_io__fill10
XIO_FILL_IO_WEST_4_1350 VDD VSS VDD VSS gf180mcu_fd_io__fill1
XIO_FILL_IO_EAST_19_100 VDD VSS VDD VSS gf180mcu_fd_io__fill10
XIO_FILL_IO_EAST_15_1000 VDD VSS VDD VSS gf180mcu_fd_io__fill10
XIO_FILL_IO_EAST_10_1100 VDD VSS VDD VSS gf180mcu_fd_io__fill10
XIO_FILL_IO_NORTH_8_800 VDD VSS VDD VSS gf180mcu_fd_io__fill10
XIO_FILL_IO_NORTH_0_700 VDD VSS VDD VSS gf180mcu_fd_io__fill10
XIO_FILL_IO_WEST_17_1350 VDD VSS VDD VSS gf180mcu_fd_io__fill1
XIO_FILL_IO_WEST_0_1000 VDD VSS VDD VSS gf180mcu_fd_io__fill10
XIO_FILL_IO_EAST_1_100 VDD VSS VDD VSS gf180mcu_fd_io__fill10
Xdvdd_west_0 VDD VSS VSS gf180mcu_ws_io__dvdd
XIO_FILL_IO_WEST_13_700 VDD VSS VDD VSS gf180mcu_fd_io__fill10
XIO_FILL_IO_EAST_9_200 VDD VSS VDD VSS gf180mcu_fd_io__fill10
XIO_FILL_IO_SOUTH_15_500 VDD VSS VDD VSS gf180mcu_fd_io__fill10
Xbidir\[42\].pad bidir_CORE2PAD\[42\] bidir_CORE2PAD_CS\[42\] VDD VSS bidir_CORE2PAD_IE\[42\]
+ bidir_CORE2PAD_OE\[42\] bidir_PAD[42] bidir_CORE2PAD_PD\[42\] bidir_CORE2PAD_PU\[42\]
+ bidir_CORE2PAD_SL\[42\] VDD VSS bidir_PAD2CORE\[42\] gf180mcu_fd_io__bi_24t
XIO_FILL_IO_WEST_13_1000 VDD VSS VDD VSS gf180mcu_fd_io__fill10